(PID.TID 0000.0001) 
(PID.TID 0000.0001) // ======================================================
(PID.TID 0000.0001) //                      MITgcm UV
(PID.TID 0000.0001) //                      =========
(PID.TID 0000.0001) // ======================================================
(PID.TID 0000.0001) // execution environment starting up...
(PID.TID 0000.0001) 
(PID.TID 0000.0001) // MITgcmUV version:  checkpoint68z
(PID.TID 0000.0001) // Build user:        estebancruz
(PID.TID 0000.0001) // Build host:        Estebanovich-MacBook-Pro.local
(PID.TID 0000.0001) // Build date:        Tue Oct  8 18:04:20 PDT 2024
(PID.TID 0000.0001) 
(PID.TID 0000.0001) // =======================================================
(PID.TID 0000.0001) // Execution Environment parameter file "eedata"
(PID.TID 0000.0001) // =======================================================
(PID.TID 0000.0001) ># Example "eedata" file
(PID.TID 0000.0001) ># Lines beginning "#" are comments
(PID.TID 0000.0001) >#  nTx      :: No. threads per process in X
(PID.TID 0000.0001) >#  nTy      :: No. threads per process in Y
(PID.TID 0000.0001) ># debugMode :: print debug msg (sequence of S/R calls)
(PID.TID 0000.0001) > &EEPARMS
(PID.TID 0000.0001) > nTx=1,
(PID.TID 0000.0001) > nTy=1,
(PID.TID 0000.0001) > /
(PID.TID 0000.0001) ># Note: Some systems use & as the namelist terminator (as shown here).
(PID.TID 0000.0001) >#       Other systems use a / character.
(PID.TID 0000.0001) 
(PID.TID 0000.0001) // =======================================================
(PID.TID 0000.0001) // Computational Grid Specification ( see files "SIZE.h" )
(PID.TID 0000.0001) //                                  ( and "eedata"       )
(PID.TID 0000.0001) // =======================================================
(PID.TID 0000.0001)      nPx =    1 ; /* No. processes in X */
(PID.TID 0000.0001)      nPy =    1 ; /* No. processes in Y */
(PID.TID 0000.0001)      nSx =   15 ; /* No. tiles in X per process */
(PID.TID 0000.0001)      nSy =   15 ; /* No. tiles in Y per process */
(PID.TID 0000.0001)      sNx =   16 ; /* Tile size in X */
(PID.TID 0000.0001)      sNy =   12 ; /* Tile size in Y */
(PID.TID 0000.0001)      OLx =    3 ; /* Tile overlap distance in X */
(PID.TID 0000.0001)      OLy =    3 ; /* Tile overlap distance in Y */
(PID.TID 0000.0001)      nTx =    1 ; /* No. threads in X per process */
(PID.TID 0000.0001)      nTy =    1 ; /* No. threads in Y per process */
(PID.TID 0000.0001)       Nr =   40 ; /* No. levels in the vertical   */
(PID.TID 0000.0001)       Nx =  240 ; /* Total domain size in X ( = nPx*nSx*sNx ) */
(PID.TID 0000.0001)       Ny =  180 ; /* Total domain size in Y ( = nPy*nSy*sNy ) */
(PID.TID 0000.0001)   nTiles =  225 ; /* Total no. tiles per process ( = nSx*nSy ) */
(PID.TID 0000.0001)   nProcs =    1 ; /* Total no. processes ( = nPx*nPy ) */
(PID.TID 0000.0001) nThreads =    1 ; /* Total no. threads per process ( = nTx*nTy ) */
(PID.TID 0000.0001) usingMPI =    F ; /* Flag used to control whether MPI is in use */
(PID.TID 0000.0001)                   /*  note: To execute a program with MPI calls */
(PID.TID 0000.0001)                   /*  it must be launched appropriately e.g     */
(PID.TID 0000.0001)                   /*  "mpirun -np 64 ......"                    */
(PID.TID 0000.0001) useCoupler=   F ; /* Flag used to control communications with   */
(PID.TID 0000.0001)                   /*  other model components, through a coupler */
(PID.TID 0000.0001) useNest2W_parent =    F ;/* Control 2-W Nesting comm */
(PID.TID 0000.0001) useNest2W_child  =    F ;/* Control 2-W Nesting comm */
(PID.TID 0000.0001) debugMode =    F ; /* print debug msg. (sequence of S/R calls)  */
(PID.TID 0000.0001) printMapIncludesZeros=    F ; /* print zeros in Std.Output maps */
(PID.TID 0000.0001) maxLengthPrt1D=   65 /* maxLength of 1D array printed to StdOut */
(PID.TID 0000.0001) 
(PID.TID 0000.0001) // ======================================================
(PID.TID 0000.0001) // Mapping of tiles to threads
(PID.TID 0000.0001) // ======================================================
(PID.TID 0000.0001) // -o- Thread   1, tiles (   1:  15,   1:  15)
(PID.TID 0000.0001) 
(PID.TID 0000.0001) // ======================================================
(PID.TID 0000.0001) // Tile <-> Tile connectvity table
(PID.TID 0000.0001) // ======================================================
(PID.TID 0000.0001) // Tile number: 000001 (process no. = 000000)
(PID.TID 0000.0001) //        WEST: Tile = 000015, Process = 000000, Comm = put
(PID.TID 0000.0001) //                bi = 000015, bj = 000001
(PID.TID 0000.0001) //        EAST: Tile = 000002, Process = 000000, Comm = put
(PID.TID 0000.0001) //                bi = 000002, bj = 000001
(PID.TID 0000.0001) //       SOUTH: Tile = 000211, Process = 000000, Comm = put
(PID.TID 0000.0001) //                bi = 000001, bj = 000015
(PID.TID 0000.0001) //       NORTH: Tile = 000016, Process = 000000, Comm = put
(PID.TID 0000.0001) //                bi = 000001, bj = 000002
(PID.TID 0000.0001) // Tile number: 000002 (process no. = 000000)
(PID.TID 0000.0001) //        WEST: Tile = 000001, Process = 000000, Comm = put
(PID.TID 0000.0001) //                bi = 000001, bj = 000001
(PID.TID 0000.0001) //        EAST: Tile = 000003, Process = 000000, Comm = put
(PID.TID 0000.0001) //                bi = 000003, bj = 000001
(PID.TID 0000.0001) //       SOUTH: Tile = 000212, Process = 000000, Comm = put
(PID.TID 0000.0001) //                bi = 000002, bj = 000015
(PID.TID 0000.0001) //       NORTH: Tile = 000017, Process = 000000, Comm = put
(PID.TID 0000.0001) //                bi = 000002, bj = 000002
(PID.TID 0000.0001) // Tile number: 000003 (process no. = 000000)
(PID.TID 0000.0001) //        WEST: Tile = 000002, Process = 000000, Comm = put
(PID.TID 0000.0001) //                bi = 000002, bj = 000001
(PID.TID 0000.0001) //        EAST: Tile = 000004, Process = 000000, Comm = put
(PID.TID 0000.0001) //                bi = 000004, bj = 000001
(PID.TID 0000.0001) //       SOUTH: Tile = 000213, Process = 000000, Comm = put
(PID.TID 0000.0001) //                bi = 000003, bj = 000015
(PID.TID 0000.0001) //       NORTH: Tile = 000018, Process = 000000, Comm = put
(PID.TID 0000.0001) //                bi = 000003, bj = 000002
(PID.TID 0000.0001) // Tile number: 000004 (process no. = 000000)
(PID.TID 0000.0001) //        WEST: Tile = 000003, Process = 000000, Comm = put
(PID.TID 0000.0001) //                bi = 000003, bj = 000001
(PID.TID 0000.0001) //        EAST: Tile = 000005, Process = 000000, Comm = put
(PID.TID 0000.0001) //                bi = 000005, bj = 000001
(PID.TID 0000.0001) //       SOUTH: Tile = 000214, Process = 000000, Comm = put
(PID.TID 0000.0001) //                bi = 000004, bj = 000015
(PID.TID 0000.0001) //       NORTH: Tile = 000019, Process = 000000, Comm = put
(PID.TID 0000.0001) //                bi = 000004, bj = 000002
(PID.TID 0000.0001) // Tile number: 000005 (process no. = 000000)
(PID.TID 0000.0001) //        WEST: Tile = 000004, Process = 000000, Comm = put
(PID.TID 0000.0001) //                bi = 000004, bj = 000001
(PID.TID 0000.0001) //        EAST: Tile = 000006, Process = 000000, Comm = put
(PID.TID 0000.0001) //                bi = 000006, bj = 000001
(PID.TID 0000.0001) //       SOUTH: Tile = 000215, Process = 000000, Comm = put
(PID.TID 0000.0001) //                bi = 000005, bj = 000015
(PID.TID 0000.0001) //       NORTH: Tile = 000020, Process = 000000, Comm = put
(PID.TID 0000.0001) //                bi = 000005, bj = 000002
(PID.TID 0000.0001) // Tile number: 000006 (process no. = 000000)
(PID.TID 0000.0001) //        WEST: Tile = 000005, Process = 000000, Comm = put
(PID.TID 0000.0001) //                bi = 000005, bj = 000001
(PID.TID 0000.0001) //        EAST: Tile = 000007, Process = 000000, Comm = put
(PID.TID 0000.0001) //                bi = 000007, bj = 000001
(PID.TID 0000.0001) //       SOUTH: Tile = 000216, Process = 000000, Comm = put
(PID.TID 0000.0001) //                bi = 000006, bj = 000015
(PID.TID 0000.0001) //       NORTH: Tile = 000021, Process = 000000, Comm = put
(PID.TID 0000.0001) //                bi = 000006, bj = 000002
(PID.TID 0000.0001) // Tile number: 000007 (process no. = 000000)
(PID.TID 0000.0001) //        WEST: Tile = 000006, Process = 000000, Comm = put
(PID.TID 0000.0001) //                bi = 000006, bj = 000001
(PID.TID 0000.0001) //        EAST: Tile = 000008, Process = 000000, Comm = put
(PID.TID 0000.0001) //                bi = 000008, bj = 000001
(PID.TID 0000.0001) //       SOUTH: Tile = 000217, Process = 000000, Comm = put
(PID.TID 0000.0001) //                bi = 000007, bj = 000015
(PID.TID 0000.0001) //       NORTH: Tile = 000022, Process = 000000, Comm = put
(PID.TID 0000.0001) //                bi = 000007, bj = 000002
(PID.TID 0000.0001) // Tile number: 000008 (process no. = 000000)
(PID.TID 0000.0001) //        WEST: Tile = 000007, Process = 000000, Comm = put
(PID.TID 0000.0001) //                bi = 000007, bj = 000001
(PID.TID 0000.0001) //        EAST: Tile = 000009, Process = 000000, Comm = put
(PID.TID 0000.0001) //                bi = 000009, bj = 000001
(PID.TID 0000.0001) //       SOUTH: Tile = 000218, Process = 000000, Comm = put
(PID.TID 0000.0001) //                bi = 000008, bj = 000015
(PID.TID 0000.0001) //       NORTH: Tile = 000023, Process = 000000, Comm = put
(PID.TID 0000.0001) //                bi = 000008, bj = 000002
(PID.TID 0000.0001) // Tile number: 000009 (process no. = 000000)
(PID.TID 0000.0001) //        WEST: Tile = 000008, Process = 000000, Comm = put
(PID.TID 0000.0001) //                bi = 000008, bj = 000001
(PID.TID 0000.0001) //        EAST: Tile = 000010, Process = 000000, Comm = put
(PID.TID 0000.0001) //                bi = 000010, bj = 000001
(PID.TID 0000.0001) //       SOUTH: Tile = 000219, Process = 000000, Comm = put
(PID.TID 0000.0001) //                bi = 000009, bj = 000015
(PID.TID 0000.0001) //       NORTH: Tile = 000024, Process = 000000, Comm = put
(PID.TID 0000.0001) //                bi = 000009, bj = 000002
(PID.TID 0000.0001) // Tile number: 000010 (process no. = 000000)
(PID.TID 0000.0001) //        WEST: Tile = 000009, Process = 000000, Comm = put
(PID.TID 0000.0001) //                bi = 000009, bj = 000001
(PID.TID 0000.0001) //        EAST: Tile = 000011, Process = 000000, Comm = put
(PID.TID 0000.0001) //                bi = 000011, bj = 000001
(PID.TID 0000.0001) //       SOUTH: Tile = 000220, Process = 000000, Comm = put
(PID.TID 0000.0001) //                bi = 000010, bj = 000015
(PID.TID 0000.0001) //       NORTH: Tile = 000025, Process = 000000, Comm = put
(PID.TID 0000.0001) //                bi = 000010, bj = 000002
(PID.TID 0000.0001) // Tile number: 000011 (process no. = 000000)
(PID.TID 0000.0001) //        WEST: Tile = 000010, Process = 000000, Comm = put
(PID.TID 0000.0001) //                bi = 000010, bj = 000001
(PID.TID 0000.0001) //        EAST: Tile = 000012, Process = 000000, Comm = put
(PID.TID 0000.0001) //                bi = 000012, bj = 000001
(PID.TID 0000.0001) //       SOUTH: Tile = 000221, Process = 000000, Comm = put
(PID.TID 0000.0001) //                bi = 000011, bj = 000015
(PID.TID 0000.0001) //       NORTH: Tile = 000026, Process = 000000, Comm = put
(PID.TID 0000.0001) //                bi = 000011, bj = 000002
(PID.TID 0000.0001) // Tile number: 000012 (process no. = 000000)
(PID.TID 0000.0001) //        WEST: Tile = 000011, Process = 000000, Comm = put
(PID.TID 0000.0001) //                bi = 000011, bj = 000001
(PID.TID 0000.0001) //        EAST: Tile = 000013, Process = 000000, Comm = put
(PID.TID 0000.0001) //                bi = 000013, bj = 000001
(PID.TID 0000.0001) //       SOUTH: Tile = 000222, Process = 000000, Comm = put
(PID.TID 0000.0001) //                bi = 000012, bj = 000015
(PID.TID 0000.0001) //       NORTH: Tile = 000027, Process = 000000, Comm = put
(PID.TID 0000.0001) //                bi = 000012, bj = 000002
(PID.TID 0000.0001) // Tile number: 000013 (process no. = 000000)
(PID.TID 0000.0001) //        WEST: Tile = 000012, Process = 000000, Comm = put
(PID.TID 0000.0001) //                bi = 000012, bj = 000001
(PID.TID 0000.0001) //        EAST: Tile = 000014, Process = 000000, Comm = put
(PID.TID 0000.0001) //                bi = 000014, bj = 000001
(PID.TID 0000.0001) //       SOUTH: Tile = 000223, Process = 000000, Comm = put
(PID.TID 0000.0001) //                bi = 000013, bj = 000015
(PID.TID 0000.0001) //       NORTH: Tile = 000028, Process = 000000, Comm = put
(PID.TID 0000.0001) //                bi = 000013, bj = 000002
(PID.TID 0000.0001) // Tile number: 000014 (process no. = 000000)
(PID.TID 0000.0001) //        WEST: Tile = 000013, Process = 000000, Comm = put
(PID.TID 0000.0001) //                bi = 000013, bj = 000001
(PID.TID 0000.0001) //        EAST: Tile = 000015, Process = 000000, Comm = put
(PID.TID 0000.0001) //                bi = 000015, bj = 000001
(PID.TID 0000.0001) //       SOUTH: Tile = 000224, Process = 000000, Comm = put
(PID.TID 0000.0001) //                bi = 000014, bj = 000015
(PID.TID 0000.0001) //       NORTH: Tile = 000029, Process = 000000, Comm = put
(PID.TID 0000.0001) //                bi = 000014, bj = 000002
(PID.TID 0000.0001) // Tile number: 000015 (process no. = 000000)
(PID.TID 0000.0001) //        WEST: Tile = 000014, Process = 000000, Comm = put
(PID.TID 0000.0001) //                bi = 000014, bj = 000001
(PID.TID 0000.0001) //        EAST: Tile = 000001, Process = 000000, Comm = put
(PID.TID 0000.0001) //                bi = 000001, bj = 000001
(PID.TID 0000.0001) //       SOUTH: Tile = 000225, Process = 000000, Comm = put
(PID.TID 0000.0001) //                bi = 000015, bj = 000015
(PID.TID 0000.0001) //       NORTH: Tile = 000030, Process = 000000, Comm = put
(PID.TID 0000.0001) //                bi = 000015, bj = 000002
(PID.TID 0000.0001) // Tile number: 000016 (process no. = 000000)
(PID.TID 0000.0001) //        WEST: Tile = 000030, Process = 000000, Comm = put
(PID.TID 0000.0001) //                bi = 000015, bj = 000002
(PID.TID 0000.0001) //        EAST: Tile = 000017, Process = 000000, Comm = put
(PID.TID 0000.0001) //                bi = 000002, bj = 000002
(PID.TID 0000.0001) //       SOUTH: Tile = 000001, Process = 000000, Comm = put
(PID.TID 0000.0001) //                bi = 000001, bj = 000001
(PID.TID 0000.0001) //       NORTH: Tile = 000031, Process = 000000, Comm = put
(PID.TID 0000.0001) //                bi = 000001, bj = 000003
(PID.TID 0000.0001) // Tile number: 000017 (process no. = 000000)
(PID.TID 0000.0001) //        WEST: Tile = 000016, Process = 000000, Comm = put
(PID.TID 0000.0001) //                bi = 000001, bj = 000002
(PID.TID 0000.0001) //        EAST: Tile = 000018, Process = 000000, Comm = put
(PID.TID 0000.0001) //                bi = 000003, bj = 000002
(PID.TID 0000.0001) //       SOUTH: Tile = 000002, Process = 000000, Comm = put
(PID.TID 0000.0001) //                bi = 000002, bj = 000001
(PID.TID 0000.0001) //       NORTH: Tile = 000032, Process = 000000, Comm = put
(PID.TID 0000.0001) //                bi = 000002, bj = 000003
(PID.TID 0000.0001) // Tile number: 000018 (process no. = 000000)
(PID.TID 0000.0001) //        WEST: Tile = 000017, Process = 000000, Comm = put
(PID.TID 0000.0001) //                bi = 000002, bj = 000002
(PID.TID 0000.0001) //        EAST: Tile = 000019, Process = 000000, Comm = put
(PID.TID 0000.0001) //                bi = 000004, bj = 000002
(PID.TID 0000.0001) //       SOUTH: Tile = 000003, Process = 000000, Comm = put
(PID.TID 0000.0001) //                bi = 000003, bj = 000001
(PID.TID 0000.0001) //       NORTH: Tile = 000033, Process = 000000, Comm = put
(PID.TID 0000.0001) //                bi = 000003, bj = 000003
(PID.TID 0000.0001) // Tile number: 000019 (process no. = 000000)
(PID.TID 0000.0001) //        WEST: Tile = 000018, Process = 000000, Comm = put
(PID.TID 0000.0001) //                bi = 000003, bj = 000002
(PID.TID 0000.0001) //        EAST: Tile = 000020, Process = 000000, Comm = put
(PID.TID 0000.0001) //                bi = 000005, bj = 000002
(PID.TID 0000.0001) //       SOUTH: Tile = 000004, Process = 000000, Comm = put
(PID.TID 0000.0001) //                bi = 000004, bj = 000001
(PID.TID 0000.0001) //       NORTH: Tile = 000034, Process = 000000, Comm = put
(PID.TID 0000.0001) //                bi = 000004, bj = 000003
(PID.TID 0000.0001) // Tile number: 000020 (process no. = 000000)
(PID.TID 0000.0001) //        WEST: Tile = 000019, Process = 000000, Comm = put
(PID.TID 0000.0001) //                bi = 000004, bj = 000002
(PID.TID 0000.0001) //        EAST: Tile = 000021, Process = 000000, Comm = put
(PID.TID 0000.0001) //                bi = 000006, bj = 000002
(PID.TID 0000.0001) //       SOUTH: Tile = 000005, Process = 000000, Comm = put
(PID.TID 0000.0001) //                bi = 000005, bj = 000001
(PID.TID 0000.0001) //       NORTH: Tile = 000035, Process = 000000, Comm = put
(PID.TID 0000.0001) //                bi = 000005, bj = 000003
(PID.TID 0000.0001) // Tile number: 000021 (process no. = 000000)
(PID.TID 0000.0001) //        WEST: Tile = 000020, Process = 000000, Comm = put
(PID.TID 0000.0001) //                bi = 000005, bj = 000002
(PID.TID 0000.0001) //        EAST: Tile = 000022, Process = 000000, Comm = put
(PID.TID 0000.0001) //                bi = 000007, bj = 000002
(PID.TID 0000.0001) //       SOUTH: Tile = 000006, Process = 000000, Comm = put
(PID.TID 0000.0001) //                bi = 000006, bj = 000001
(PID.TID 0000.0001) //       NORTH: Tile = 000036, Process = 000000, Comm = put
(PID.TID 0000.0001) //                bi = 000006, bj = 000003
(PID.TID 0000.0001) // Tile number: 000022 (process no. = 000000)
(PID.TID 0000.0001) //        WEST: Tile = 000021, Process = 000000, Comm = put
(PID.TID 0000.0001) //                bi = 000006, bj = 000002
(PID.TID 0000.0001) //        EAST: Tile = 000023, Process = 000000, Comm = put
(PID.TID 0000.0001) //                bi = 000008, bj = 000002
(PID.TID 0000.0001) //       SOUTH: Tile = 000007, Process = 000000, Comm = put
(PID.TID 0000.0001) //                bi = 000007, bj = 000001
(PID.TID 0000.0001) //       NORTH: Tile = 000037, Process = 000000, Comm = put
(PID.TID 0000.0001) //                bi = 000007, bj = 000003
(PID.TID 0000.0001) // Tile number: 000023 (process no. = 000000)
(PID.TID 0000.0001) //        WEST: Tile = 000022, Process = 000000, Comm = put
(PID.TID 0000.0001) //                bi = 000007, bj = 000002
(PID.TID 0000.0001) //        EAST: Tile = 000024, Process = 000000, Comm = put
(PID.TID 0000.0001) //                bi = 000009, bj = 000002
(PID.TID 0000.0001) //       SOUTH: Tile = 000008, Process = 000000, Comm = put
(PID.TID 0000.0001) //                bi = 000008, bj = 000001
(PID.TID 0000.0001) //       NORTH: Tile = 000038, Process = 000000, Comm = put
(PID.TID 0000.0001) //                bi = 000008, bj = 000003
(PID.TID 0000.0001) // Tile number: 000024 (process no. = 000000)
(PID.TID 0000.0001) //        WEST: Tile = 000023, Process = 000000, Comm = put
(PID.TID 0000.0001) //                bi = 000008, bj = 000002
(PID.TID 0000.0001) //        EAST: Tile = 000025, Process = 000000, Comm = put
(PID.TID 0000.0001) //                bi = 000010, bj = 000002
(PID.TID 0000.0001) //       SOUTH: Tile = 000009, Process = 000000, Comm = put
(PID.TID 0000.0001) //                bi = 000009, bj = 000001
(PID.TID 0000.0001) //       NORTH: Tile = 000039, Process = 000000, Comm = put
(PID.TID 0000.0001) //                bi = 000009, bj = 000003
(PID.TID 0000.0001) // Tile number: 000025 (process no. = 000000)
(PID.TID 0000.0001) //        WEST: Tile = 000024, Process = 000000, Comm = put
(PID.TID 0000.0001) //                bi = 000009, bj = 000002
(PID.TID 0000.0001) //        EAST: Tile = 000026, Process = 000000, Comm = put
(PID.TID 0000.0001) //                bi = 000011, bj = 000002
(PID.TID 0000.0001) //       SOUTH: Tile = 000010, Process = 000000, Comm = put
(PID.TID 0000.0001) //                bi = 000010, bj = 000001
(PID.TID 0000.0001) //       NORTH: Tile = 000040, Process = 000000, Comm = put
(PID.TID 0000.0001) //                bi = 000010, bj = 000003
(PID.TID 0000.0001) // Tile number: 000026 (process no. = 000000)
(PID.TID 0000.0001) //        WEST: Tile = 000025, Process = 000000, Comm = put
(PID.TID 0000.0001) //                bi = 000010, bj = 000002
(PID.TID 0000.0001) //        EAST: Tile = 000027, Process = 000000, Comm = put
(PID.TID 0000.0001) //                bi = 000012, bj = 000002
(PID.TID 0000.0001) //       SOUTH: Tile = 000011, Process = 000000, Comm = put
(PID.TID 0000.0001) //                bi = 000011, bj = 000001
(PID.TID 0000.0001) //       NORTH: Tile = 000041, Process = 000000, Comm = put
(PID.TID 0000.0001) //                bi = 000011, bj = 000003
(PID.TID 0000.0001) // Tile number: 000027 (process no. = 000000)
(PID.TID 0000.0001) //        WEST: Tile = 000026, Process = 000000, Comm = put
(PID.TID 0000.0001) //                bi = 000011, bj = 000002
(PID.TID 0000.0001) //        EAST: Tile = 000028, Process = 000000, Comm = put
(PID.TID 0000.0001) //                bi = 000013, bj = 000002
(PID.TID 0000.0001) //       SOUTH: Tile = 000012, Process = 000000, Comm = put
(PID.TID 0000.0001) //                bi = 000012, bj = 000001
(PID.TID 0000.0001) //       NORTH: Tile = 000042, Process = 000000, Comm = put
(PID.TID 0000.0001) //                bi = 000012, bj = 000003
(PID.TID 0000.0001) // Tile number: 000028 (process no. = 000000)
(PID.TID 0000.0001) //        WEST: Tile = 000027, Process = 000000, Comm = put
(PID.TID 0000.0001) //                bi = 000012, bj = 000002
(PID.TID 0000.0001) //        EAST: Tile = 000029, Process = 000000, Comm = put
(PID.TID 0000.0001) //                bi = 000014, bj = 000002
(PID.TID 0000.0001) //       SOUTH: Tile = 000013, Process = 000000, Comm = put
(PID.TID 0000.0001) //                bi = 000013, bj = 000001
(PID.TID 0000.0001) //       NORTH: Tile = 000043, Process = 000000, Comm = put
(PID.TID 0000.0001) //                bi = 000013, bj = 000003
(PID.TID 0000.0001) // Tile number: 000029 (process no. = 000000)
(PID.TID 0000.0001) //        WEST: Tile = 000028, Process = 000000, Comm = put
(PID.TID 0000.0001) //                bi = 000013, bj = 000002
(PID.TID 0000.0001) //        EAST: Tile = 000030, Process = 000000, Comm = put
(PID.TID 0000.0001) //                bi = 000015, bj = 000002
(PID.TID 0000.0001) //       SOUTH: Tile = 000014, Process = 000000, Comm = put
(PID.TID 0000.0001) //                bi = 000014, bj = 000001
(PID.TID 0000.0001) //       NORTH: Tile = 000044, Process = 000000, Comm = put
(PID.TID 0000.0001) //                bi = 000014, bj = 000003
(PID.TID 0000.0001) // Tile number: 000030 (process no. = 000000)
(PID.TID 0000.0001) //        WEST: Tile = 000029, Process = 000000, Comm = put
(PID.TID 0000.0001) //                bi = 000014, bj = 000002
(PID.TID 0000.0001) //        EAST: Tile = 000016, Process = 000000, Comm = put
(PID.TID 0000.0001) //                bi = 000001, bj = 000002
(PID.TID 0000.0001) //       SOUTH: Tile = 000015, Process = 000000, Comm = put
(PID.TID 0000.0001) //                bi = 000015, bj = 000001
(PID.TID 0000.0001) //       NORTH: Tile = 000045, Process = 000000, Comm = put
(PID.TID 0000.0001) //                bi = 000015, bj = 000003
(PID.TID 0000.0001) // Tile number: 000031 (process no. = 000000)
(PID.TID 0000.0001) //        WEST: Tile = 000045, Process = 000000, Comm = put
(PID.TID 0000.0001) //                bi = 000015, bj = 000003
(PID.TID 0000.0001) //        EAST: Tile = 000032, Process = 000000, Comm = put
(PID.TID 0000.0001) //                bi = 000002, bj = 000003
(PID.TID 0000.0001) //       SOUTH: Tile = 000016, Process = 000000, Comm = put
(PID.TID 0000.0001) //                bi = 000001, bj = 000002
(PID.TID 0000.0001) //       NORTH: Tile = 000046, Process = 000000, Comm = put
(PID.TID 0000.0001) //                bi = 000001, bj = 000004
(PID.TID 0000.0001) // Tile number: 000032 (process no. = 000000)
(PID.TID 0000.0001) //        WEST: Tile = 000031, Process = 000000, Comm = put
(PID.TID 0000.0001) //                bi = 000001, bj = 000003
(PID.TID 0000.0001) //        EAST: Tile = 000033, Process = 000000, Comm = put
(PID.TID 0000.0001) //                bi = 000003, bj = 000003
(PID.TID 0000.0001) //       SOUTH: Tile = 000017, Process = 000000, Comm = put
(PID.TID 0000.0001) //                bi = 000002, bj = 000002
(PID.TID 0000.0001) //       NORTH: Tile = 000047, Process = 000000, Comm = put
(PID.TID 0000.0001) //                bi = 000002, bj = 000004
(PID.TID 0000.0001) // Tile number: 000033 (process no. = 000000)
(PID.TID 0000.0001) //        WEST: Tile = 000032, Process = 000000, Comm = put
(PID.TID 0000.0001) //                bi = 000002, bj = 000003
(PID.TID 0000.0001) //        EAST: Tile = 000034, Process = 000000, Comm = put
(PID.TID 0000.0001) //                bi = 000004, bj = 000003
(PID.TID 0000.0001) //       SOUTH: Tile = 000018, Process = 000000, Comm = put
(PID.TID 0000.0001) //                bi = 000003, bj = 000002
(PID.TID 0000.0001) //       NORTH: Tile = 000048, Process = 000000, Comm = put
(PID.TID 0000.0001) //                bi = 000003, bj = 000004
(PID.TID 0000.0001) // Tile number: 000034 (process no. = 000000)
(PID.TID 0000.0001) //        WEST: Tile = 000033, Process = 000000, Comm = put
(PID.TID 0000.0001) //                bi = 000003, bj = 000003
(PID.TID 0000.0001) //        EAST: Tile = 000035, Process = 000000, Comm = put
(PID.TID 0000.0001) //                bi = 000005, bj = 000003
(PID.TID 0000.0001) //       SOUTH: Tile = 000019, Process = 000000, Comm = put
(PID.TID 0000.0001) //                bi = 000004, bj = 000002
(PID.TID 0000.0001) //       NORTH: Tile = 000049, Process = 000000, Comm = put
(PID.TID 0000.0001) //                bi = 000004, bj = 000004
(PID.TID 0000.0001) // Tile number: 000035 (process no. = 000000)
(PID.TID 0000.0001) //        WEST: Tile = 000034, Process = 000000, Comm = put
(PID.TID 0000.0001) //                bi = 000004, bj = 000003
(PID.TID 0000.0001) //        EAST: Tile = 000036, Process = 000000, Comm = put
(PID.TID 0000.0001) //                bi = 000006, bj = 000003
(PID.TID 0000.0001) //       SOUTH: Tile = 000020, Process = 000000, Comm = put
(PID.TID 0000.0001) //                bi = 000005, bj = 000002
(PID.TID 0000.0001) //       NORTH: Tile = 000050, Process = 000000, Comm = put
(PID.TID 0000.0001) //                bi = 000005, bj = 000004
(PID.TID 0000.0001) // Tile number: 000036 (process no. = 000000)
(PID.TID 0000.0001) //        WEST: Tile = 000035, Process = 000000, Comm = put
(PID.TID 0000.0001) //                bi = 000005, bj = 000003
(PID.TID 0000.0001) //        EAST: Tile = 000037, Process = 000000, Comm = put
(PID.TID 0000.0001) //                bi = 000007, bj = 000003
(PID.TID 0000.0001) //       SOUTH: Tile = 000021, Process = 000000, Comm = put
(PID.TID 0000.0001) //                bi = 000006, bj = 000002
(PID.TID 0000.0001) //       NORTH: Tile = 000051, Process = 000000, Comm = put
(PID.TID 0000.0001) //                bi = 000006, bj = 000004
(PID.TID 0000.0001) // Tile number: 000037 (process no. = 000000)
(PID.TID 0000.0001) //        WEST: Tile = 000036, Process = 000000, Comm = put
(PID.TID 0000.0001) //                bi = 000006, bj = 000003
(PID.TID 0000.0001) //        EAST: Tile = 000038, Process = 000000, Comm = put
(PID.TID 0000.0001) //                bi = 000008, bj = 000003
(PID.TID 0000.0001) //       SOUTH: Tile = 000022, Process = 000000, Comm = put
(PID.TID 0000.0001) //                bi = 000007, bj = 000002
(PID.TID 0000.0001) //       NORTH: Tile = 000052, Process = 000000, Comm = put
(PID.TID 0000.0001) //                bi = 000007, bj = 000004
(PID.TID 0000.0001) // Tile number: 000038 (process no. = 000000)
(PID.TID 0000.0001) //        WEST: Tile = 000037, Process = 000000, Comm = put
(PID.TID 0000.0001) //                bi = 000007, bj = 000003
(PID.TID 0000.0001) //        EAST: Tile = 000039, Process = 000000, Comm = put
(PID.TID 0000.0001) //                bi = 000009, bj = 000003
(PID.TID 0000.0001) //       SOUTH: Tile = 000023, Process = 000000, Comm = put
(PID.TID 0000.0001) //                bi = 000008, bj = 000002
(PID.TID 0000.0001) //       NORTH: Tile = 000053, Process = 000000, Comm = put
(PID.TID 0000.0001) //                bi = 000008, bj = 000004
(PID.TID 0000.0001) // Tile number: 000039 (process no. = 000000)
(PID.TID 0000.0001) //        WEST: Tile = 000038, Process = 000000, Comm = put
(PID.TID 0000.0001) //                bi = 000008, bj = 000003
(PID.TID 0000.0001) //        EAST: Tile = 000040, Process = 000000, Comm = put
(PID.TID 0000.0001) //                bi = 000010, bj = 000003
(PID.TID 0000.0001) //       SOUTH: Tile = 000024, Process = 000000, Comm = put
(PID.TID 0000.0001) //                bi = 000009, bj = 000002
(PID.TID 0000.0001) //       NORTH: Tile = 000054, Process = 000000, Comm = put
(PID.TID 0000.0001) //                bi = 000009, bj = 000004
(PID.TID 0000.0001) // Tile number: 000040 (process no. = 000000)
(PID.TID 0000.0001) //        WEST: Tile = 000039, Process = 000000, Comm = put
(PID.TID 0000.0001) //                bi = 000009, bj = 000003
(PID.TID 0000.0001) //        EAST: Tile = 000041, Process = 000000, Comm = put
(PID.TID 0000.0001) //                bi = 000011, bj = 000003
(PID.TID 0000.0001) //       SOUTH: Tile = 000025, Process = 000000, Comm = put
(PID.TID 0000.0001) //                bi = 000010, bj = 000002
(PID.TID 0000.0001) //       NORTH: Tile = 000055, Process = 000000, Comm = put
(PID.TID 0000.0001) //                bi = 000010, bj = 000004
(PID.TID 0000.0001) // Tile number: 000041 (process no. = 000000)
(PID.TID 0000.0001) //        WEST: Tile = 000040, Process = 000000, Comm = put
(PID.TID 0000.0001) //                bi = 000010, bj = 000003
(PID.TID 0000.0001) //        EAST: Tile = 000042, Process = 000000, Comm = put
(PID.TID 0000.0001) //                bi = 000012, bj = 000003
(PID.TID 0000.0001) //       SOUTH: Tile = 000026, Process = 000000, Comm = put
(PID.TID 0000.0001) //                bi = 000011, bj = 000002
(PID.TID 0000.0001) //       NORTH: Tile = 000056, Process = 000000, Comm = put
(PID.TID 0000.0001) //                bi = 000011, bj = 000004
(PID.TID 0000.0001) // Tile number: 000042 (process no. = 000000)
(PID.TID 0000.0001) //        WEST: Tile = 000041, Process = 000000, Comm = put
(PID.TID 0000.0001) //                bi = 000011, bj = 000003
(PID.TID 0000.0001) //        EAST: Tile = 000043, Process = 000000, Comm = put
(PID.TID 0000.0001) //                bi = 000013, bj = 000003
(PID.TID 0000.0001) //       SOUTH: Tile = 000027, Process = 000000, Comm = put
(PID.TID 0000.0001) //                bi = 000012, bj = 000002
(PID.TID 0000.0001) //       NORTH: Tile = 000057, Process = 000000, Comm = put
(PID.TID 0000.0001) //                bi = 000012, bj = 000004
(PID.TID 0000.0001) // Tile number: 000043 (process no. = 000000)
(PID.TID 0000.0001) //        WEST: Tile = 000042, Process = 000000, Comm = put
(PID.TID 0000.0001) //                bi = 000012, bj = 000003
(PID.TID 0000.0001) //        EAST: Tile = 000044, Process = 000000, Comm = put
(PID.TID 0000.0001) //                bi = 000014, bj = 000003
(PID.TID 0000.0001) //       SOUTH: Tile = 000028, Process = 000000, Comm = put
(PID.TID 0000.0001) //                bi = 000013, bj = 000002
(PID.TID 0000.0001) //       NORTH: Tile = 000058, Process = 000000, Comm = put
(PID.TID 0000.0001) //                bi = 000013, bj = 000004
(PID.TID 0000.0001) // Tile number: 000044 (process no. = 000000)
(PID.TID 0000.0001) //        WEST: Tile = 000043, Process = 000000, Comm = put
(PID.TID 0000.0001) //                bi = 000013, bj = 000003
(PID.TID 0000.0001) //        EAST: Tile = 000045, Process = 000000, Comm = put
(PID.TID 0000.0001) //                bi = 000015, bj = 000003
(PID.TID 0000.0001) //       SOUTH: Tile = 000029, Process = 000000, Comm = put
(PID.TID 0000.0001) //                bi = 000014, bj = 000002
(PID.TID 0000.0001) //       NORTH: Tile = 000059, Process = 000000, Comm = put
(PID.TID 0000.0001) //                bi = 000014, bj = 000004
(PID.TID 0000.0001) // Tile number: 000045 (process no. = 000000)
(PID.TID 0000.0001) //        WEST: Tile = 000044, Process = 000000, Comm = put
(PID.TID 0000.0001) //                bi = 000014, bj = 000003
(PID.TID 0000.0001) //        EAST: Tile = 000031, Process = 000000, Comm = put
(PID.TID 0000.0001) //                bi = 000001, bj = 000003
(PID.TID 0000.0001) //       SOUTH: Tile = 000030, Process = 000000, Comm = put
(PID.TID 0000.0001) //                bi = 000015, bj = 000002
(PID.TID 0000.0001) //       NORTH: Tile = 000060, Process = 000000, Comm = put
(PID.TID 0000.0001) //                bi = 000015, bj = 000004
(PID.TID 0000.0001) // Tile number: 000046 (process no. = 000000)
(PID.TID 0000.0001) //        WEST: Tile = 000060, Process = 000000, Comm = put
(PID.TID 0000.0001) //                bi = 000015, bj = 000004
(PID.TID 0000.0001) //        EAST: Tile = 000047, Process = 000000, Comm = put
(PID.TID 0000.0001) //                bi = 000002, bj = 000004
(PID.TID 0000.0001) //       SOUTH: Tile = 000031, Process = 000000, Comm = put
(PID.TID 0000.0001) //                bi = 000001, bj = 000003
(PID.TID 0000.0001) //       NORTH: Tile = 000061, Process = 000000, Comm = put
(PID.TID 0000.0001) //                bi = 000001, bj = 000005
(PID.TID 0000.0001) // Tile number: 000047 (process no. = 000000)
(PID.TID 0000.0001) //        WEST: Tile = 000046, Process = 000000, Comm = put
(PID.TID 0000.0001) //                bi = 000001, bj = 000004
(PID.TID 0000.0001) //        EAST: Tile = 000048, Process = 000000, Comm = put
(PID.TID 0000.0001) //                bi = 000003, bj = 000004
(PID.TID 0000.0001) //       SOUTH: Tile = 000032, Process = 000000, Comm = put
(PID.TID 0000.0001) //                bi = 000002, bj = 000003
(PID.TID 0000.0001) //       NORTH: Tile = 000062, Process = 000000, Comm = put
(PID.TID 0000.0001) //                bi = 000002, bj = 000005
(PID.TID 0000.0001) // Tile number: 000048 (process no. = 000000)
(PID.TID 0000.0001) //        WEST: Tile = 000047, Process = 000000, Comm = put
(PID.TID 0000.0001) //                bi = 000002, bj = 000004
(PID.TID 0000.0001) //        EAST: Tile = 000049, Process = 000000, Comm = put
(PID.TID 0000.0001) //                bi = 000004, bj = 000004
(PID.TID 0000.0001) //       SOUTH: Tile = 000033, Process = 000000, Comm = put
(PID.TID 0000.0001) //                bi = 000003, bj = 000003
(PID.TID 0000.0001) //       NORTH: Tile = 000063, Process = 000000, Comm = put
(PID.TID 0000.0001) //                bi = 000003, bj = 000005
(PID.TID 0000.0001) // Tile number: 000049 (process no. = 000000)
(PID.TID 0000.0001) //        WEST: Tile = 000048, Process = 000000, Comm = put
(PID.TID 0000.0001) //                bi = 000003, bj = 000004
(PID.TID 0000.0001) //        EAST: Tile = 000050, Process = 000000, Comm = put
(PID.TID 0000.0001) //                bi = 000005, bj = 000004
(PID.TID 0000.0001) //       SOUTH: Tile = 000034, Process = 000000, Comm = put
(PID.TID 0000.0001) //                bi = 000004, bj = 000003
(PID.TID 0000.0001) //       NORTH: Tile = 000064, Process = 000000, Comm = put
(PID.TID 0000.0001) //                bi = 000004, bj = 000005
(PID.TID 0000.0001) // Tile number: 000050 (process no. = 000000)
(PID.TID 0000.0001) //        WEST: Tile = 000049, Process = 000000, Comm = put
(PID.TID 0000.0001) //                bi = 000004, bj = 000004
(PID.TID 0000.0001) //        EAST: Tile = 000051, Process = 000000, Comm = put
(PID.TID 0000.0001) //                bi = 000006, bj = 000004
(PID.TID 0000.0001) //       SOUTH: Tile = 000035, Process = 000000, Comm = put
(PID.TID 0000.0001) //                bi = 000005, bj = 000003
(PID.TID 0000.0001) //       NORTH: Tile = 000065, Process = 000000, Comm = put
(PID.TID 0000.0001) //                bi = 000005, bj = 000005
(PID.TID 0000.0001) // Tile number: 000051 (process no. = 000000)
(PID.TID 0000.0001) //        WEST: Tile = 000050, Process = 000000, Comm = put
(PID.TID 0000.0001) //                bi = 000005, bj = 000004
(PID.TID 0000.0001) //        EAST: Tile = 000052, Process = 000000, Comm = put
(PID.TID 0000.0001) //                bi = 000007, bj = 000004
(PID.TID 0000.0001) //       SOUTH: Tile = 000036, Process = 000000, Comm = put
(PID.TID 0000.0001) //                bi = 000006, bj = 000003
(PID.TID 0000.0001) //       NORTH: Tile = 000066, Process = 000000, Comm = put
(PID.TID 0000.0001) //                bi = 000006, bj = 000005
(PID.TID 0000.0001) // Tile number: 000052 (process no. = 000000)
(PID.TID 0000.0001) //        WEST: Tile = 000051, Process = 000000, Comm = put
(PID.TID 0000.0001) //                bi = 000006, bj = 000004
(PID.TID 0000.0001) //        EAST: Tile = 000053, Process = 000000, Comm = put
(PID.TID 0000.0001) //                bi = 000008, bj = 000004
(PID.TID 0000.0001) //       SOUTH: Tile = 000037, Process = 000000, Comm = put
(PID.TID 0000.0001) //                bi = 000007, bj = 000003
(PID.TID 0000.0001) //       NORTH: Tile = 000067, Process = 000000, Comm = put
(PID.TID 0000.0001) //                bi = 000007, bj = 000005
(PID.TID 0000.0001) // Tile number: 000053 (process no. = 000000)
(PID.TID 0000.0001) //        WEST: Tile = 000052, Process = 000000, Comm = put
(PID.TID 0000.0001) //                bi = 000007, bj = 000004
(PID.TID 0000.0001) //        EAST: Tile = 000054, Process = 000000, Comm = put
(PID.TID 0000.0001) //                bi = 000009, bj = 000004
(PID.TID 0000.0001) //       SOUTH: Tile = 000038, Process = 000000, Comm = put
(PID.TID 0000.0001) //                bi = 000008, bj = 000003
(PID.TID 0000.0001) //       NORTH: Tile = 000068, Process = 000000, Comm = put
(PID.TID 0000.0001) //                bi = 000008, bj = 000005
(PID.TID 0000.0001) // Tile number: 000054 (process no. = 000000)
(PID.TID 0000.0001) //        WEST: Tile = 000053, Process = 000000, Comm = put
(PID.TID 0000.0001) //                bi = 000008, bj = 000004
(PID.TID 0000.0001) //        EAST: Tile = 000055, Process = 000000, Comm = put
(PID.TID 0000.0001) //                bi = 000010, bj = 000004
(PID.TID 0000.0001) //       SOUTH: Tile = 000039, Process = 000000, Comm = put
(PID.TID 0000.0001) //                bi = 000009, bj = 000003
(PID.TID 0000.0001) //       NORTH: Tile = 000069, Process = 000000, Comm = put
(PID.TID 0000.0001) //                bi = 000009, bj = 000005
(PID.TID 0000.0001) // Tile number: 000055 (process no. = 000000)
(PID.TID 0000.0001) //        WEST: Tile = 000054, Process = 000000, Comm = put
(PID.TID 0000.0001) //                bi = 000009, bj = 000004
(PID.TID 0000.0001) //        EAST: Tile = 000056, Process = 000000, Comm = put
(PID.TID 0000.0001) //                bi = 000011, bj = 000004
(PID.TID 0000.0001) //       SOUTH: Tile = 000040, Process = 000000, Comm = put
(PID.TID 0000.0001) //                bi = 000010, bj = 000003
(PID.TID 0000.0001) //       NORTH: Tile = 000070, Process = 000000, Comm = put
(PID.TID 0000.0001) //                bi = 000010, bj = 000005
(PID.TID 0000.0001) // Tile number: 000056 (process no. = 000000)
(PID.TID 0000.0001) //        WEST: Tile = 000055, Process = 000000, Comm = put
(PID.TID 0000.0001) //                bi = 000010, bj = 000004
(PID.TID 0000.0001) //        EAST: Tile = 000057, Process = 000000, Comm = put
(PID.TID 0000.0001) //                bi = 000012, bj = 000004
(PID.TID 0000.0001) //       SOUTH: Tile = 000041, Process = 000000, Comm = put
(PID.TID 0000.0001) //                bi = 000011, bj = 000003
(PID.TID 0000.0001) //       NORTH: Tile = 000071, Process = 000000, Comm = put
(PID.TID 0000.0001) //                bi = 000011, bj = 000005
(PID.TID 0000.0001) // Tile number: 000057 (process no. = 000000)
(PID.TID 0000.0001) //        WEST: Tile = 000056, Process = 000000, Comm = put
(PID.TID 0000.0001) //                bi = 000011, bj = 000004
(PID.TID 0000.0001) //        EAST: Tile = 000058, Process = 000000, Comm = put
(PID.TID 0000.0001) //                bi = 000013, bj = 000004
(PID.TID 0000.0001) //       SOUTH: Tile = 000042, Process = 000000, Comm = put
(PID.TID 0000.0001) //                bi = 000012, bj = 000003
(PID.TID 0000.0001) //       NORTH: Tile = 000072, Process = 000000, Comm = put
(PID.TID 0000.0001) //                bi = 000012, bj = 000005
(PID.TID 0000.0001) // Tile number: 000058 (process no. = 000000)
(PID.TID 0000.0001) //        WEST: Tile = 000057, Process = 000000, Comm = put
(PID.TID 0000.0001) //                bi = 000012, bj = 000004
(PID.TID 0000.0001) //        EAST: Tile = 000059, Process = 000000, Comm = put
(PID.TID 0000.0001) //                bi = 000014, bj = 000004
(PID.TID 0000.0001) //       SOUTH: Tile = 000043, Process = 000000, Comm = put
(PID.TID 0000.0001) //                bi = 000013, bj = 000003
(PID.TID 0000.0001) //       NORTH: Tile = 000073, Process = 000000, Comm = put
(PID.TID 0000.0001) //                bi = 000013, bj = 000005
(PID.TID 0000.0001) // Tile number: 000059 (process no. = 000000)
(PID.TID 0000.0001) //        WEST: Tile = 000058, Process = 000000, Comm = put
(PID.TID 0000.0001) //                bi = 000013, bj = 000004
(PID.TID 0000.0001) //        EAST: Tile = 000060, Process = 000000, Comm = put
(PID.TID 0000.0001) //                bi = 000015, bj = 000004
(PID.TID 0000.0001) //       SOUTH: Tile = 000044, Process = 000000, Comm = put
(PID.TID 0000.0001) //                bi = 000014, bj = 000003
(PID.TID 0000.0001) //       NORTH: Tile = 000074, Process = 000000, Comm = put
(PID.TID 0000.0001) //                bi = 000014, bj = 000005
(PID.TID 0000.0001) // Tile number: 000060 (process no. = 000000)
(PID.TID 0000.0001) //        WEST: Tile = 000059, Process = 000000, Comm = put
(PID.TID 0000.0001) //                bi = 000014, bj = 000004
(PID.TID 0000.0001) //        EAST: Tile = 000046, Process = 000000, Comm = put
(PID.TID 0000.0001) //                bi = 000001, bj = 000004
(PID.TID 0000.0001) //       SOUTH: Tile = 000045, Process = 000000, Comm = put
(PID.TID 0000.0001) //                bi = 000015, bj = 000003
(PID.TID 0000.0001) //       NORTH: Tile = 000075, Process = 000000, Comm = put
(PID.TID 0000.0001) //                bi = 000015, bj = 000005
(PID.TID 0000.0001) // Tile number: 000061 (process no. = 000000)
(PID.TID 0000.0001) //        WEST: Tile = 000075, Process = 000000, Comm = put
(PID.TID 0000.0001) //                bi = 000015, bj = 000005
(PID.TID 0000.0001) //        EAST: Tile = 000062, Process = 000000, Comm = put
(PID.TID 0000.0001) //                bi = 000002, bj = 000005
(PID.TID 0000.0001) //       SOUTH: Tile = 000046, Process = 000000, Comm = put
(PID.TID 0000.0001) //                bi = 000001, bj = 000004
(PID.TID 0000.0001) //       NORTH: Tile = 000076, Process = 000000, Comm = put
(PID.TID 0000.0001) //                bi = 000001, bj = 000006
(PID.TID 0000.0001) // Tile number: 000062 (process no. = 000000)
(PID.TID 0000.0001) //        WEST: Tile = 000061, Process = 000000, Comm = put
(PID.TID 0000.0001) //                bi = 000001, bj = 000005
(PID.TID 0000.0001) //        EAST: Tile = 000063, Process = 000000, Comm = put
(PID.TID 0000.0001) //                bi = 000003, bj = 000005
(PID.TID 0000.0001) //       SOUTH: Tile = 000047, Process = 000000, Comm = put
(PID.TID 0000.0001) //                bi = 000002, bj = 000004
(PID.TID 0000.0001) //       NORTH: Tile = 000077, Process = 000000, Comm = put
(PID.TID 0000.0001) //                bi = 000002, bj = 000006
(PID.TID 0000.0001) // Tile number: 000063 (process no. = 000000)
(PID.TID 0000.0001) //        WEST: Tile = 000062, Process = 000000, Comm = put
(PID.TID 0000.0001) //                bi = 000002, bj = 000005
(PID.TID 0000.0001) //        EAST: Tile = 000064, Process = 000000, Comm = put
(PID.TID 0000.0001) //                bi = 000004, bj = 000005
(PID.TID 0000.0001) //       SOUTH: Tile = 000048, Process = 000000, Comm = put
(PID.TID 0000.0001) //                bi = 000003, bj = 000004
(PID.TID 0000.0001) //       NORTH: Tile = 000078, Process = 000000, Comm = put
(PID.TID 0000.0001) //                bi = 000003, bj = 000006
(PID.TID 0000.0001) // Tile number: 000064 (process no. = 000000)
(PID.TID 0000.0001) //        WEST: Tile = 000063, Process = 000000, Comm = put
(PID.TID 0000.0001) //                bi = 000003, bj = 000005
(PID.TID 0000.0001) //        EAST: Tile = 000065, Process = 000000, Comm = put
(PID.TID 0000.0001) //                bi = 000005, bj = 000005
(PID.TID 0000.0001) //       SOUTH: Tile = 000049, Process = 000000, Comm = put
(PID.TID 0000.0001) //                bi = 000004, bj = 000004
(PID.TID 0000.0001) //       NORTH: Tile = 000079, Process = 000000, Comm = put
(PID.TID 0000.0001) //                bi = 000004, bj = 000006
(PID.TID 0000.0001) // Tile number: 000065 (process no. = 000000)
(PID.TID 0000.0001) //        WEST: Tile = 000064, Process = 000000, Comm = put
(PID.TID 0000.0001) //                bi = 000004, bj = 000005
(PID.TID 0000.0001) //        EAST: Tile = 000066, Process = 000000, Comm = put
(PID.TID 0000.0001) //                bi = 000006, bj = 000005
(PID.TID 0000.0001) //       SOUTH: Tile = 000050, Process = 000000, Comm = put
(PID.TID 0000.0001) //                bi = 000005, bj = 000004
(PID.TID 0000.0001) //       NORTH: Tile = 000080, Process = 000000, Comm = put
(PID.TID 0000.0001) //                bi = 000005, bj = 000006
(PID.TID 0000.0001) // Tile number: 000066 (process no. = 000000)
(PID.TID 0000.0001) //        WEST: Tile = 000065, Process = 000000, Comm = put
(PID.TID 0000.0001) //                bi = 000005, bj = 000005
(PID.TID 0000.0001) //        EAST: Tile = 000067, Process = 000000, Comm = put
(PID.TID 0000.0001) //                bi = 000007, bj = 000005
(PID.TID 0000.0001) //       SOUTH: Tile = 000051, Process = 000000, Comm = put
(PID.TID 0000.0001) //                bi = 000006, bj = 000004
(PID.TID 0000.0001) //       NORTH: Tile = 000081, Process = 000000, Comm = put
(PID.TID 0000.0001) //                bi = 000006, bj = 000006
(PID.TID 0000.0001) // Tile number: 000067 (process no. = 000000)
(PID.TID 0000.0001) //        WEST: Tile = 000066, Process = 000000, Comm = put
(PID.TID 0000.0001) //                bi = 000006, bj = 000005
(PID.TID 0000.0001) //        EAST: Tile = 000068, Process = 000000, Comm = put
(PID.TID 0000.0001) //                bi = 000008, bj = 000005
(PID.TID 0000.0001) //       SOUTH: Tile = 000052, Process = 000000, Comm = put
(PID.TID 0000.0001) //                bi = 000007, bj = 000004
(PID.TID 0000.0001) //       NORTH: Tile = 000082, Process = 000000, Comm = put
(PID.TID 0000.0001) //                bi = 000007, bj = 000006
(PID.TID 0000.0001) // Tile number: 000068 (process no. = 000000)
(PID.TID 0000.0001) //        WEST: Tile = 000067, Process = 000000, Comm = put
(PID.TID 0000.0001) //                bi = 000007, bj = 000005
(PID.TID 0000.0001) //        EAST: Tile = 000069, Process = 000000, Comm = put
(PID.TID 0000.0001) //                bi = 000009, bj = 000005
(PID.TID 0000.0001) //       SOUTH: Tile = 000053, Process = 000000, Comm = put
(PID.TID 0000.0001) //                bi = 000008, bj = 000004
(PID.TID 0000.0001) //       NORTH: Tile = 000083, Process = 000000, Comm = put
(PID.TID 0000.0001) //                bi = 000008, bj = 000006
(PID.TID 0000.0001) // Tile number: 000069 (process no. = 000000)
(PID.TID 0000.0001) //        WEST: Tile = 000068, Process = 000000, Comm = put
(PID.TID 0000.0001) //                bi = 000008, bj = 000005
(PID.TID 0000.0001) //        EAST: Tile = 000070, Process = 000000, Comm = put
(PID.TID 0000.0001) //                bi = 000010, bj = 000005
(PID.TID 0000.0001) //       SOUTH: Tile = 000054, Process = 000000, Comm = put
(PID.TID 0000.0001) //                bi = 000009, bj = 000004
(PID.TID 0000.0001) //       NORTH: Tile = 000084, Process = 000000, Comm = put
(PID.TID 0000.0001) //                bi = 000009, bj = 000006
(PID.TID 0000.0001) // Tile number: 000070 (process no. = 000000)
(PID.TID 0000.0001) //        WEST: Tile = 000069, Process = 000000, Comm = put
(PID.TID 0000.0001) //                bi = 000009, bj = 000005
(PID.TID 0000.0001) //        EAST: Tile = 000071, Process = 000000, Comm = put
(PID.TID 0000.0001) //                bi = 000011, bj = 000005
(PID.TID 0000.0001) //       SOUTH: Tile = 000055, Process = 000000, Comm = put
(PID.TID 0000.0001) //                bi = 000010, bj = 000004
(PID.TID 0000.0001) //       NORTH: Tile = 000085, Process = 000000, Comm = put
(PID.TID 0000.0001) //                bi = 000010, bj = 000006
(PID.TID 0000.0001) // Tile number: 000071 (process no. = 000000)
(PID.TID 0000.0001) //        WEST: Tile = 000070, Process = 000000, Comm = put
(PID.TID 0000.0001) //                bi = 000010, bj = 000005
(PID.TID 0000.0001) //        EAST: Tile = 000072, Process = 000000, Comm = put
(PID.TID 0000.0001) //                bi = 000012, bj = 000005
(PID.TID 0000.0001) //       SOUTH: Tile = 000056, Process = 000000, Comm = put
(PID.TID 0000.0001) //                bi = 000011, bj = 000004
(PID.TID 0000.0001) //       NORTH: Tile = 000086, Process = 000000, Comm = put
(PID.TID 0000.0001) //                bi = 000011, bj = 000006
(PID.TID 0000.0001) // Tile number: 000072 (process no. = 000000)
(PID.TID 0000.0001) //        WEST: Tile = 000071, Process = 000000, Comm = put
(PID.TID 0000.0001) //                bi = 000011, bj = 000005
(PID.TID 0000.0001) //        EAST: Tile = 000073, Process = 000000, Comm = put
(PID.TID 0000.0001) //                bi = 000013, bj = 000005
(PID.TID 0000.0001) //       SOUTH: Tile = 000057, Process = 000000, Comm = put
(PID.TID 0000.0001) //                bi = 000012, bj = 000004
(PID.TID 0000.0001) //       NORTH: Tile = 000087, Process = 000000, Comm = put
(PID.TID 0000.0001) //                bi = 000012, bj = 000006
(PID.TID 0000.0001) // Tile number: 000073 (process no. = 000000)
(PID.TID 0000.0001) //        WEST: Tile = 000072, Process = 000000, Comm = put
(PID.TID 0000.0001) //                bi = 000012, bj = 000005
(PID.TID 0000.0001) //        EAST: Tile = 000074, Process = 000000, Comm = put
(PID.TID 0000.0001) //                bi = 000014, bj = 000005
(PID.TID 0000.0001) //       SOUTH: Tile = 000058, Process = 000000, Comm = put
(PID.TID 0000.0001) //                bi = 000013, bj = 000004
(PID.TID 0000.0001) //       NORTH: Tile = 000088, Process = 000000, Comm = put
(PID.TID 0000.0001) //                bi = 000013, bj = 000006
(PID.TID 0000.0001) // Tile number: 000074 (process no. = 000000)
(PID.TID 0000.0001) //        WEST: Tile = 000073, Process = 000000, Comm = put
(PID.TID 0000.0001) //                bi = 000013, bj = 000005
(PID.TID 0000.0001) //        EAST: Tile = 000075, Process = 000000, Comm = put
(PID.TID 0000.0001) //                bi = 000015, bj = 000005
(PID.TID 0000.0001) //       SOUTH: Tile = 000059, Process = 000000, Comm = put
(PID.TID 0000.0001) //                bi = 000014, bj = 000004
(PID.TID 0000.0001) //       NORTH: Tile = 000089, Process = 000000, Comm = put
(PID.TID 0000.0001) //                bi = 000014, bj = 000006
(PID.TID 0000.0001) // Tile number: 000075 (process no. = 000000)
(PID.TID 0000.0001) //        WEST: Tile = 000074, Process = 000000, Comm = put
(PID.TID 0000.0001) //                bi = 000014, bj = 000005
(PID.TID 0000.0001) //        EAST: Tile = 000061, Process = 000000, Comm = put
(PID.TID 0000.0001) //                bi = 000001, bj = 000005
(PID.TID 0000.0001) //       SOUTH: Tile = 000060, Process = 000000, Comm = put
(PID.TID 0000.0001) //                bi = 000015, bj = 000004
(PID.TID 0000.0001) //       NORTH: Tile = 000090, Process = 000000, Comm = put
(PID.TID 0000.0001) //                bi = 000015, bj = 000006
(PID.TID 0000.0001) // Tile number: 000076 (process no. = 000000)
(PID.TID 0000.0001) //        WEST: Tile = 000090, Process = 000000, Comm = put
(PID.TID 0000.0001) //                bi = 000015, bj = 000006
(PID.TID 0000.0001) //        EAST: Tile = 000077, Process = 000000, Comm = put
(PID.TID 0000.0001) //                bi = 000002, bj = 000006
(PID.TID 0000.0001) //       SOUTH: Tile = 000061, Process = 000000, Comm = put
(PID.TID 0000.0001) //                bi = 000001, bj = 000005
(PID.TID 0000.0001) //       NORTH: Tile = 000091, Process = 000000, Comm = put
(PID.TID 0000.0001) //                bi = 000001, bj = 000007
(PID.TID 0000.0001) // Tile number: 000077 (process no. = 000000)
(PID.TID 0000.0001) //        WEST: Tile = 000076, Process = 000000, Comm = put
(PID.TID 0000.0001) //                bi = 000001, bj = 000006
(PID.TID 0000.0001) //        EAST: Tile = 000078, Process = 000000, Comm = put
(PID.TID 0000.0001) //                bi = 000003, bj = 000006
(PID.TID 0000.0001) //       SOUTH: Tile = 000062, Process = 000000, Comm = put
(PID.TID 0000.0001) //                bi = 000002, bj = 000005
(PID.TID 0000.0001) //       NORTH: Tile = 000092, Process = 000000, Comm = put
(PID.TID 0000.0001) //                bi = 000002, bj = 000007
(PID.TID 0000.0001) // Tile number: 000078 (process no. = 000000)
(PID.TID 0000.0001) //        WEST: Tile = 000077, Process = 000000, Comm = put
(PID.TID 0000.0001) //                bi = 000002, bj = 000006
(PID.TID 0000.0001) //        EAST: Tile = 000079, Process = 000000, Comm = put
(PID.TID 0000.0001) //                bi = 000004, bj = 000006
(PID.TID 0000.0001) //       SOUTH: Tile = 000063, Process = 000000, Comm = put
(PID.TID 0000.0001) //                bi = 000003, bj = 000005
(PID.TID 0000.0001) //       NORTH: Tile = 000093, Process = 000000, Comm = put
(PID.TID 0000.0001) //                bi = 000003, bj = 000007
(PID.TID 0000.0001) // Tile number: 000079 (process no. = 000000)
(PID.TID 0000.0001) //        WEST: Tile = 000078, Process = 000000, Comm = put
(PID.TID 0000.0001) //                bi = 000003, bj = 000006
(PID.TID 0000.0001) //        EAST: Tile = 000080, Process = 000000, Comm = put
(PID.TID 0000.0001) //                bi = 000005, bj = 000006
(PID.TID 0000.0001) //       SOUTH: Tile = 000064, Process = 000000, Comm = put
(PID.TID 0000.0001) //                bi = 000004, bj = 000005
(PID.TID 0000.0001) //       NORTH: Tile = 000094, Process = 000000, Comm = put
(PID.TID 0000.0001) //                bi = 000004, bj = 000007
(PID.TID 0000.0001) // Tile number: 000080 (process no. = 000000)
(PID.TID 0000.0001) //        WEST: Tile = 000079, Process = 000000, Comm = put
(PID.TID 0000.0001) //                bi = 000004, bj = 000006
(PID.TID 0000.0001) //        EAST: Tile = 000081, Process = 000000, Comm = put
(PID.TID 0000.0001) //                bi = 000006, bj = 000006
(PID.TID 0000.0001) //       SOUTH: Tile = 000065, Process = 000000, Comm = put
(PID.TID 0000.0001) //                bi = 000005, bj = 000005
(PID.TID 0000.0001) //       NORTH: Tile = 000095, Process = 000000, Comm = put
(PID.TID 0000.0001) //                bi = 000005, bj = 000007
(PID.TID 0000.0001) // Tile number: 000081 (process no. = 000000)
(PID.TID 0000.0001) //        WEST: Tile = 000080, Process = 000000, Comm = put
(PID.TID 0000.0001) //                bi = 000005, bj = 000006
(PID.TID 0000.0001) //        EAST: Tile = 000082, Process = 000000, Comm = put
(PID.TID 0000.0001) //                bi = 000007, bj = 000006
(PID.TID 0000.0001) //       SOUTH: Tile = 000066, Process = 000000, Comm = put
(PID.TID 0000.0001) //                bi = 000006, bj = 000005
(PID.TID 0000.0001) //       NORTH: Tile = 000096, Process = 000000, Comm = put
(PID.TID 0000.0001) //                bi = 000006, bj = 000007
(PID.TID 0000.0001) // Tile number: 000082 (process no. = 000000)
(PID.TID 0000.0001) //        WEST: Tile = 000081, Process = 000000, Comm = put
(PID.TID 0000.0001) //                bi = 000006, bj = 000006
(PID.TID 0000.0001) //        EAST: Tile = 000083, Process = 000000, Comm = put
(PID.TID 0000.0001) //                bi = 000008, bj = 000006
(PID.TID 0000.0001) //       SOUTH: Tile = 000067, Process = 000000, Comm = put
(PID.TID 0000.0001) //                bi = 000007, bj = 000005
(PID.TID 0000.0001) //       NORTH: Tile = 000097, Process = 000000, Comm = put
(PID.TID 0000.0001) //                bi = 000007, bj = 000007
(PID.TID 0000.0001) // Tile number: 000083 (process no. = 000000)
(PID.TID 0000.0001) //        WEST: Tile = 000082, Process = 000000, Comm = put
(PID.TID 0000.0001) //                bi = 000007, bj = 000006
(PID.TID 0000.0001) //        EAST: Tile = 000084, Process = 000000, Comm = put
(PID.TID 0000.0001) //                bi = 000009, bj = 000006
(PID.TID 0000.0001) //       SOUTH: Tile = 000068, Process = 000000, Comm = put
(PID.TID 0000.0001) //                bi = 000008, bj = 000005
(PID.TID 0000.0001) //       NORTH: Tile = 000098, Process = 000000, Comm = put
(PID.TID 0000.0001) //                bi = 000008, bj = 000007
(PID.TID 0000.0001) // Tile number: 000084 (process no. = 000000)
(PID.TID 0000.0001) //        WEST: Tile = 000083, Process = 000000, Comm = put
(PID.TID 0000.0001) //                bi = 000008, bj = 000006
(PID.TID 0000.0001) //        EAST: Tile = 000085, Process = 000000, Comm = put
(PID.TID 0000.0001) //                bi = 000010, bj = 000006
(PID.TID 0000.0001) //       SOUTH: Tile = 000069, Process = 000000, Comm = put
(PID.TID 0000.0001) //                bi = 000009, bj = 000005
(PID.TID 0000.0001) //       NORTH: Tile = 000099, Process = 000000, Comm = put
(PID.TID 0000.0001) //                bi = 000009, bj = 000007
(PID.TID 0000.0001) // Tile number: 000085 (process no. = 000000)
(PID.TID 0000.0001) //        WEST: Tile = 000084, Process = 000000, Comm = put
(PID.TID 0000.0001) //                bi = 000009, bj = 000006
(PID.TID 0000.0001) //        EAST: Tile = 000086, Process = 000000, Comm = put
(PID.TID 0000.0001) //                bi = 000011, bj = 000006
(PID.TID 0000.0001) //       SOUTH: Tile = 000070, Process = 000000, Comm = put
(PID.TID 0000.0001) //                bi = 000010, bj = 000005
(PID.TID 0000.0001) //       NORTH: Tile = 000100, Process = 000000, Comm = put
(PID.TID 0000.0001) //                bi = 000010, bj = 000007
(PID.TID 0000.0001) // Tile number: 000086 (process no. = 000000)
(PID.TID 0000.0001) //        WEST: Tile = 000085, Process = 000000, Comm = put
(PID.TID 0000.0001) //                bi = 000010, bj = 000006
(PID.TID 0000.0001) //        EAST: Tile = 000087, Process = 000000, Comm = put
(PID.TID 0000.0001) //                bi = 000012, bj = 000006
(PID.TID 0000.0001) //       SOUTH: Tile = 000071, Process = 000000, Comm = put
(PID.TID 0000.0001) //                bi = 000011, bj = 000005
(PID.TID 0000.0001) //       NORTH: Tile = 000101, Process = 000000, Comm = put
(PID.TID 0000.0001) //                bi = 000011, bj = 000007
(PID.TID 0000.0001) // Tile number: 000087 (process no. = 000000)
(PID.TID 0000.0001) //        WEST: Tile = 000086, Process = 000000, Comm = put
(PID.TID 0000.0001) //                bi = 000011, bj = 000006
(PID.TID 0000.0001) //        EAST: Tile = 000088, Process = 000000, Comm = put
(PID.TID 0000.0001) //                bi = 000013, bj = 000006
(PID.TID 0000.0001) //       SOUTH: Tile = 000072, Process = 000000, Comm = put
(PID.TID 0000.0001) //                bi = 000012, bj = 000005
(PID.TID 0000.0001) //       NORTH: Tile = 000102, Process = 000000, Comm = put
(PID.TID 0000.0001) //                bi = 000012, bj = 000007
(PID.TID 0000.0001) // Tile number: 000088 (process no. = 000000)
(PID.TID 0000.0001) //        WEST: Tile = 000087, Process = 000000, Comm = put
(PID.TID 0000.0001) //                bi = 000012, bj = 000006
(PID.TID 0000.0001) //        EAST: Tile = 000089, Process = 000000, Comm = put
(PID.TID 0000.0001) //                bi = 000014, bj = 000006
(PID.TID 0000.0001) //       SOUTH: Tile = 000073, Process = 000000, Comm = put
(PID.TID 0000.0001) //                bi = 000013, bj = 000005
(PID.TID 0000.0001) //       NORTH: Tile = 000103, Process = 000000, Comm = put
(PID.TID 0000.0001) //                bi = 000013, bj = 000007
(PID.TID 0000.0001) // Tile number: 000089 (process no. = 000000)
(PID.TID 0000.0001) //        WEST: Tile = 000088, Process = 000000, Comm = put
(PID.TID 0000.0001) //                bi = 000013, bj = 000006
(PID.TID 0000.0001) //        EAST: Tile = 000090, Process = 000000, Comm = put
(PID.TID 0000.0001) //                bi = 000015, bj = 000006
(PID.TID 0000.0001) //       SOUTH: Tile = 000074, Process = 000000, Comm = put
(PID.TID 0000.0001) //                bi = 000014, bj = 000005
(PID.TID 0000.0001) //       NORTH: Tile = 000104, Process = 000000, Comm = put
(PID.TID 0000.0001) //                bi = 000014, bj = 000007
(PID.TID 0000.0001) // Tile number: 000090 (process no. = 000000)
(PID.TID 0000.0001) //        WEST: Tile = 000089, Process = 000000, Comm = put
(PID.TID 0000.0001) //                bi = 000014, bj = 000006
(PID.TID 0000.0001) //        EAST: Tile = 000076, Process = 000000, Comm = put
(PID.TID 0000.0001) //                bi = 000001, bj = 000006
(PID.TID 0000.0001) //       SOUTH: Tile = 000075, Process = 000000, Comm = put
(PID.TID 0000.0001) //                bi = 000015, bj = 000005
(PID.TID 0000.0001) //       NORTH: Tile = 000105, Process = 000000, Comm = put
(PID.TID 0000.0001) //                bi = 000015, bj = 000007
(PID.TID 0000.0001) // Tile number: 000091 (process no. = 000000)
(PID.TID 0000.0001) //        WEST: Tile = 000105, Process = 000000, Comm = put
(PID.TID 0000.0001) //                bi = 000015, bj = 000007
(PID.TID 0000.0001) //        EAST: Tile = 000092, Process = 000000, Comm = put
(PID.TID 0000.0001) //                bi = 000002, bj = 000007
(PID.TID 0000.0001) //       SOUTH: Tile = 000076, Process = 000000, Comm = put
(PID.TID 0000.0001) //                bi = 000001, bj = 000006
(PID.TID 0000.0001) //       NORTH: Tile = 000106, Process = 000000, Comm = put
(PID.TID 0000.0001) //                bi = 000001, bj = 000008
(PID.TID 0000.0001) // Tile number: 000092 (process no. = 000000)
(PID.TID 0000.0001) //        WEST: Tile = 000091, Process = 000000, Comm = put
(PID.TID 0000.0001) //                bi = 000001, bj = 000007
(PID.TID 0000.0001) //        EAST: Tile = 000093, Process = 000000, Comm = put
(PID.TID 0000.0001) //                bi = 000003, bj = 000007
(PID.TID 0000.0001) //       SOUTH: Tile = 000077, Process = 000000, Comm = put
(PID.TID 0000.0001) //                bi = 000002, bj = 000006
(PID.TID 0000.0001) //       NORTH: Tile = 000107, Process = 000000, Comm = put
(PID.TID 0000.0001) //                bi = 000002, bj = 000008
(PID.TID 0000.0001) // Tile number: 000093 (process no. = 000000)
(PID.TID 0000.0001) //        WEST: Tile = 000092, Process = 000000, Comm = put
(PID.TID 0000.0001) //                bi = 000002, bj = 000007
(PID.TID 0000.0001) //        EAST: Tile = 000094, Process = 000000, Comm = put
(PID.TID 0000.0001) //                bi = 000004, bj = 000007
(PID.TID 0000.0001) //       SOUTH: Tile = 000078, Process = 000000, Comm = put
(PID.TID 0000.0001) //                bi = 000003, bj = 000006
(PID.TID 0000.0001) //       NORTH: Tile = 000108, Process = 000000, Comm = put
(PID.TID 0000.0001) //                bi = 000003, bj = 000008
(PID.TID 0000.0001) // Tile number: 000094 (process no. = 000000)
(PID.TID 0000.0001) //        WEST: Tile = 000093, Process = 000000, Comm = put
(PID.TID 0000.0001) //                bi = 000003, bj = 000007
(PID.TID 0000.0001) //        EAST: Tile = 000095, Process = 000000, Comm = put
(PID.TID 0000.0001) //                bi = 000005, bj = 000007
(PID.TID 0000.0001) //       SOUTH: Tile = 000079, Process = 000000, Comm = put
(PID.TID 0000.0001) //                bi = 000004, bj = 000006
(PID.TID 0000.0001) //       NORTH: Tile = 000109, Process = 000000, Comm = put
(PID.TID 0000.0001) //                bi = 000004, bj = 000008
(PID.TID 0000.0001) // Tile number: 000095 (process no. = 000000)
(PID.TID 0000.0001) //        WEST: Tile = 000094, Process = 000000, Comm = put
(PID.TID 0000.0001) //                bi = 000004, bj = 000007
(PID.TID 0000.0001) //        EAST: Tile = 000096, Process = 000000, Comm = put
(PID.TID 0000.0001) //                bi = 000006, bj = 000007
(PID.TID 0000.0001) //       SOUTH: Tile = 000080, Process = 000000, Comm = put
(PID.TID 0000.0001) //                bi = 000005, bj = 000006
(PID.TID 0000.0001) //       NORTH: Tile = 000110, Process = 000000, Comm = put
(PID.TID 0000.0001) //                bi = 000005, bj = 000008
(PID.TID 0000.0001) // Tile number: 000096 (process no. = 000000)
(PID.TID 0000.0001) //        WEST: Tile = 000095, Process = 000000, Comm = put
(PID.TID 0000.0001) //                bi = 000005, bj = 000007
(PID.TID 0000.0001) //        EAST: Tile = 000097, Process = 000000, Comm = put
(PID.TID 0000.0001) //                bi = 000007, bj = 000007
(PID.TID 0000.0001) //       SOUTH: Tile = 000081, Process = 000000, Comm = put
(PID.TID 0000.0001) //                bi = 000006, bj = 000006
(PID.TID 0000.0001) //       NORTH: Tile = 000111, Process = 000000, Comm = put
(PID.TID 0000.0001) //                bi = 000006, bj = 000008
(PID.TID 0000.0001) // Tile number: 000097 (process no. = 000000)
(PID.TID 0000.0001) //        WEST: Tile = 000096, Process = 000000, Comm = put
(PID.TID 0000.0001) //                bi = 000006, bj = 000007
(PID.TID 0000.0001) //        EAST: Tile = 000098, Process = 000000, Comm = put
(PID.TID 0000.0001) //                bi = 000008, bj = 000007
(PID.TID 0000.0001) //       SOUTH: Tile = 000082, Process = 000000, Comm = put
(PID.TID 0000.0001) //                bi = 000007, bj = 000006
(PID.TID 0000.0001) //       NORTH: Tile = 000112, Process = 000000, Comm = put
(PID.TID 0000.0001) //                bi = 000007, bj = 000008
(PID.TID 0000.0001) // Tile number: 000098 (process no. = 000000)
(PID.TID 0000.0001) //        WEST: Tile = 000097, Process = 000000, Comm = put
(PID.TID 0000.0001) //                bi = 000007, bj = 000007
(PID.TID 0000.0001) //        EAST: Tile = 000099, Process = 000000, Comm = put
(PID.TID 0000.0001) //                bi = 000009, bj = 000007
(PID.TID 0000.0001) //       SOUTH: Tile = 000083, Process = 000000, Comm = put
(PID.TID 0000.0001) //                bi = 000008, bj = 000006
(PID.TID 0000.0001) //       NORTH: Tile = 000113, Process = 000000, Comm = put
(PID.TID 0000.0001) //                bi = 000008, bj = 000008
(PID.TID 0000.0001) // Tile number: 000099 (process no. = 000000)
(PID.TID 0000.0001) //        WEST: Tile = 000098, Process = 000000, Comm = put
(PID.TID 0000.0001) //                bi = 000008, bj = 000007
(PID.TID 0000.0001) //        EAST: Tile = 000100, Process = 000000, Comm = put
(PID.TID 0000.0001) //                bi = 000010, bj = 000007
(PID.TID 0000.0001) //       SOUTH: Tile = 000084, Process = 000000, Comm = put
(PID.TID 0000.0001) //                bi = 000009, bj = 000006
(PID.TID 0000.0001) //       NORTH: Tile = 000114, Process = 000000, Comm = put
(PID.TID 0000.0001) //                bi = 000009, bj = 000008
(PID.TID 0000.0001) // Tile number: 000100 (process no. = 000000)
(PID.TID 0000.0001) //        WEST: Tile = 000099, Process = 000000, Comm = put
(PID.TID 0000.0001) //                bi = 000009, bj = 000007
(PID.TID 0000.0001) //        EAST: Tile = 000101, Process = 000000, Comm = put
(PID.TID 0000.0001) //                bi = 000011, bj = 000007
(PID.TID 0000.0001) //       SOUTH: Tile = 000085, Process = 000000, Comm = put
(PID.TID 0000.0001) //                bi = 000010, bj = 000006
(PID.TID 0000.0001) //       NORTH: Tile = 000115, Process = 000000, Comm = put
(PID.TID 0000.0001) //                bi = 000010, bj = 000008
(PID.TID 0000.0001) // Tile number: 000101 (process no. = 000000)
(PID.TID 0000.0001) //        WEST: Tile = 000100, Process = 000000, Comm = put
(PID.TID 0000.0001) //                bi = 000010, bj = 000007
(PID.TID 0000.0001) //        EAST: Tile = 000102, Process = 000000, Comm = put
(PID.TID 0000.0001) //                bi = 000012, bj = 000007
(PID.TID 0000.0001) //       SOUTH: Tile = 000086, Process = 000000, Comm = put
(PID.TID 0000.0001) //                bi = 000011, bj = 000006
(PID.TID 0000.0001) //       NORTH: Tile = 000116, Process = 000000, Comm = put
(PID.TID 0000.0001) //                bi = 000011, bj = 000008
(PID.TID 0000.0001) // Tile number: 000102 (process no. = 000000)
(PID.TID 0000.0001) //        WEST: Tile = 000101, Process = 000000, Comm = put
(PID.TID 0000.0001) //                bi = 000011, bj = 000007
(PID.TID 0000.0001) //        EAST: Tile = 000103, Process = 000000, Comm = put
(PID.TID 0000.0001) //                bi = 000013, bj = 000007
(PID.TID 0000.0001) //       SOUTH: Tile = 000087, Process = 000000, Comm = put
(PID.TID 0000.0001) //                bi = 000012, bj = 000006
(PID.TID 0000.0001) //       NORTH: Tile = 000117, Process = 000000, Comm = put
(PID.TID 0000.0001) //                bi = 000012, bj = 000008
(PID.TID 0000.0001) // Tile number: 000103 (process no. = 000000)
(PID.TID 0000.0001) //        WEST: Tile = 000102, Process = 000000, Comm = put
(PID.TID 0000.0001) //                bi = 000012, bj = 000007
(PID.TID 0000.0001) //        EAST: Tile = 000104, Process = 000000, Comm = put
(PID.TID 0000.0001) //                bi = 000014, bj = 000007
(PID.TID 0000.0001) //       SOUTH: Tile = 000088, Process = 000000, Comm = put
(PID.TID 0000.0001) //                bi = 000013, bj = 000006
(PID.TID 0000.0001) //       NORTH: Tile = 000118, Process = 000000, Comm = put
(PID.TID 0000.0001) //                bi = 000013, bj = 000008
(PID.TID 0000.0001) // Tile number: 000104 (process no. = 000000)
(PID.TID 0000.0001) //        WEST: Tile = 000103, Process = 000000, Comm = put
(PID.TID 0000.0001) //                bi = 000013, bj = 000007
(PID.TID 0000.0001) //        EAST: Tile = 000105, Process = 000000, Comm = put
(PID.TID 0000.0001) //                bi = 000015, bj = 000007
(PID.TID 0000.0001) //       SOUTH: Tile = 000089, Process = 000000, Comm = put
(PID.TID 0000.0001) //                bi = 000014, bj = 000006
(PID.TID 0000.0001) //       NORTH: Tile = 000119, Process = 000000, Comm = put
(PID.TID 0000.0001) //                bi = 000014, bj = 000008
(PID.TID 0000.0001) // Tile number: 000105 (process no. = 000000)
(PID.TID 0000.0001) //        WEST: Tile = 000104, Process = 000000, Comm = put
(PID.TID 0000.0001) //                bi = 000014, bj = 000007
(PID.TID 0000.0001) //        EAST: Tile = 000091, Process = 000000, Comm = put
(PID.TID 0000.0001) //                bi = 000001, bj = 000007
(PID.TID 0000.0001) //       SOUTH: Tile = 000090, Process = 000000, Comm = put
(PID.TID 0000.0001) //                bi = 000015, bj = 000006
(PID.TID 0000.0001) //       NORTH: Tile = 000120, Process = 000000, Comm = put
(PID.TID 0000.0001) //                bi = 000015, bj = 000008
(PID.TID 0000.0001) // Tile number: 000106 (process no. = 000000)
(PID.TID 0000.0001) //        WEST: Tile = 000120, Process = 000000, Comm = put
(PID.TID 0000.0001) //                bi = 000015, bj = 000008
(PID.TID 0000.0001) //        EAST: Tile = 000107, Process = 000000, Comm = put
(PID.TID 0000.0001) //                bi = 000002, bj = 000008
(PID.TID 0000.0001) //       SOUTH: Tile = 000091, Process = 000000, Comm = put
(PID.TID 0000.0001) //                bi = 000001, bj = 000007
(PID.TID 0000.0001) //       NORTH: Tile = 000121, Process = 000000, Comm = put
(PID.TID 0000.0001) //                bi = 000001, bj = 000009
(PID.TID 0000.0001) // Tile number: 000107 (process no. = 000000)
(PID.TID 0000.0001) //        WEST: Tile = 000106, Process = 000000, Comm = put
(PID.TID 0000.0001) //                bi = 000001, bj = 000008
(PID.TID 0000.0001) //        EAST: Tile = 000108, Process = 000000, Comm = put
(PID.TID 0000.0001) //                bi = 000003, bj = 000008
(PID.TID 0000.0001) //       SOUTH: Tile = 000092, Process = 000000, Comm = put
(PID.TID 0000.0001) //                bi = 000002, bj = 000007
(PID.TID 0000.0001) //       NORTH: Tile = 000122, Process = 000000, Comm = put
(PID.TID 0000.0001) //                bi = 000002, bj = 000009
(PID.TID 0000.0001) // Tile number: 000108 (process no. = 000000)
(PID.TID 0000.0001) //        WEST: Tile = 000107, Process = 000000, Comm = put
(PID.TID 0000.0001) //                bi = 000002, bj = 000008
(PID.TID 0000.0001) //        EAST: Tile = 000109, Process = 000000, Comm = put
(PID.TID 0000.0001) //                bi = 000004, bj = 000008
(PID.TID 0000.0001) //       SOUTH: Tile = 000093, Process = 000000, Comm = put
(PID.TID 0000.0001) //                bi = 000003, bj = 000007
(PID.TID 0000.0001) //       NORTH: Tile = 000123, Process = 000000, Comm = put
(PID.TID 0000.0001) //                bi = 000003, bj = 000009
(PID.TID 0000.0001) // Tile number: 000109 (process no. = 000000)
(PID.TID 0000.0001) //        WEST: Tile = 000108, Process = 000000, Comm = put
(PID.TID 0000.0001) //                bi = 000003, bj = 000008
(PID.TID 0000.0001) //        EAST: Tile = 000110, Process = 000000, Comm = put
(PID.TID 0000.0001) //                bi = 000005, bj = 000008
(PID.TID 0000.0001) //       SOUTH: Tile = 000094, Process = 000000, Comm = put
(PID.TID 0000.0001) //                bi = 000004, bj = 000007
(PID.TID 0000.0001) //       NORTH: Tile = 000124, Process = 000000, Comm = put
(PID.TID 0000.0001) //                bi = 000004, bj = 000009
(PID.TID 0000.0001) // Tile number: 000110 (process no. = 000000)
(PID.TID 0000.0001) //        WEST: Tile = 000109, Process = 000000, Comm = put
(PID.TID 0000.0001) //                bi = 000004, bj = 000008
(PID.TID 0000.0001) //        EAST: Tile = 000111, Process = 000000, Comm = put
(PID.TID 0000.0001) //                bi = 000006, bj = 000008
(PID.TID 0000.0001) //       SOUTH: Tile = 000095, Process = 000000, Comm = put
(PID.TID 0000.0001) //                bi = 000005, bj = 000007
(PID.TID 0000.0001) //       NORTH: Tile = 000125, Process = 000000, Comm = put
(PID.TID 0000.0001) //                bi = 000005, bj = 000009
(PID.TID 0000.0001) // Tile number: 000111 (process no. = 000000)
(PID.TID 0000.0001) //        WEST: Tile = 000110, Process = 000000, Comm = put
(PID.TID 0000.0001) //                bi = 000005, bj = 000008
(PID.TID 0000.0001) //        EAST: Tile = 000112, Process = 000000, Comm = put
(PID.TID 0000.0001) //                bi = 000007, bj = 000008
(PID.TID 0000.0001) //       SOUTH: Tile = 000096, Process = 000000, Comm = put
(PID.TID 0000.0001) //                bi = 000006, bj = 000007
(PID.TID 0000.0001) //       NORTH: Tile = 000126, Process = 000000, Comm = put
(PID.TID 0000.0001) //                bi = 000006, bj = 000009
(PID.TID 0000.0001) // Tile number: 000112 (process no. = 000000)
(PID.TID 0000.0001) //        WEST: Tile = 000111, Process = 000000, Comm = put
(PID.TID 0000.0001) //                bi = 000006, bj = 000008
(PID.TID 0000.0001) //        EAST: Tile = 000113, Process = 000000, Comm = put
(PID.TID 0000.0001) //                bi = 000008, bj = 000008
(PID.TID 0000.0001) //       SOUTH: Tile = 000097, Process = 000000, Comm = put
(PID.TID 0000.0001) //                bi = 000007, bj = 000007
(PID.TID 0000.0001) //       NORTH: Tile = 000127, Process = 000000, Comm = put
(PID.TID 0000.0001) //                bi = 000007, bj = 000009
(PID.TID 0000.0001) // Tile number: 000113 (process no. = 000000)
(PID.TID 0000.0001) //        WEST: Tile = 000112, Process = 000000, Comm = put
(PID.TID 0000.0001) //                bi = 000007, bj = 000008
(PID.TID 0000.0001) //        EAST: Tile = 000114, Process = 000000, Comm = put
(PID.TID 0000.0001) //                bi = 000009, bj = 000008
(PID.TID 0000.0001) //       SOUTH: Tile = 000098, Process = 000000, Comm = put
(PID.TID 0000.0001) //                bi = 000008, bj = 000007
(PID.TID 0000.0001) //       NORTH: Tile = 000128, Process = 000000, Comm = put
(PID.TID 0000.0001) //                bi = 000008, bj = 000009
(PID.TID 0000.0001) // Tile number: 000114 (process no. = 000000)
(PID.TID 0000.0001) //        WEST: Tile = 000113, Process = 000000, Comm = put
(PID.TID 0000.0001) //                bi = 000008, bj = 000008
(PID.TID 0000.0001) //        EAST: Tile = 000115, Process = 000000, Comm = put
(PID.TID 0000.0001) //                bi = 000010, bj = 000008
(PID.TID 0000.0001) //       SOUTH: Tile = 000099, Process = 000000, Comm = put
(PID.TID 0000.0001) //                bi = 000009, bj = 000007
(PID.TID 0000.0001) //       NORTH: Tile = 000129, Process = 000000, Comm = put
(PID.TID 0000.0001) //                bi = 000009, bj = 000009
(PID.TID 0000.0001) // Tile number: 000115 (process no. = 000000)
(PID.TID 0000.0001) //        WEST: Tile = 000114, Process = 000000, Comm = put
(PID.TID 0000.0001) //                bi = 000009, bj = 000008
(PID.TID 0000.0001) //        EAST: Tile = 000116, Process = 000000, Comm = put
(PID.TID 0000.0001) //                bi = 000011, bj = 000008
(PID.TID 0000.0001) //       SOUTH: Tile = 000100, Process = 000000, Comm = put
(PID.TID 0000.0001) //                bi = 000010, bj = 000007
(PID.TID 0000.0001) //       NORTH: Tile = 000130, Process = 000000, Comm = put
(PID.TID 0000.0001) //                bi = 000010, bj = 000009
(PID.TID 0000.0001) // Tile number: 000116 (process no. = 000000)
(PID.TID 0000.0001) //        WEST: Tile = 000115, Process = 000000, Comm = put
(PID.TID 0000.0001) //                bi = 000010, bj = 000008
(PID.TID 0000.0001) //        EAST: Tile = 000117, Process = 000000, Comm = put
(PID.TID 0000.0001) //                bi = 000012, bj = 000008
(PID.TID 0000.0001) //       SOUTH: Tile = 000101, Process = 000000, Comm = put
(PID.TID 0000.0001) //                bi = 000011, bj = 000007
(PID.TID 0000.0001) //       NORTH: Tile = 000131, Process = 000000, Comm = put
(PID.TID 0000.0001) //                bi = 000011, bj = 000009
(PID.TID 0000.0001) // Tile number: 000117 (process no. = 000000)
(PID.TID 0000.0001) //        WEST: Tile = 000116, Process = 000000, Comm = put
(PID.TID 0000.0001) //                bi = 000011, bj = 000008
(PID.TID 0000.0001) //        EAST: Tile = 000118, Process = 000000, Comm = put
(PID.TID 0000.0001) //                bi = 000013, bj = 000008
(PID.TID 0000.0001) //       SOUTH: Tile = 000102, Process = 000000, Comm = put
(PID.TID 0000.0001) //                bi = 000012, bj = 000007
(PID.TID 0000.0001) //       NORTH: Tile = 000132, Process = 000000, Comm = put
(PID.TID 0000.0001) //                bi = 000012, bj = 000009
(PID.TID 0000.0001) // Tile number: 000118 (process no. = 000000)
(PID.TID 0000.0001) //        WEST: Tile = 000117, Process = 000000, Comm = put
(PID.TID 0000.0001) //                bi = 000012, bj = 000008
(PID.TID 0000.0001) //        EAST: Tile = 000119, Process = 000000, Comm = put
(PID.TID 0000.0001) //                bi = 000014, bj = 000008
(PID.TID 0000.0001) //       SOUTH: Tile = 000103, Process = 000000, Comm = put
(PID.TID 0000.0001) //                bi = 000013, bj = 000007
(PID.TID 0000.0001) //       NORTH: Tile = 000133, Process = 000000, Comm = put
(PID.TID 0000.0001) //                bi = 000013, bj = 000009
(PID.TID 0000.0001) // Tile number: 000119 (process no. = 000000)
(PID.TID 0000.0001) //        WEST: Tile = 000118, Process = 000000, Comm = put
(PID.TID 0000.0001) //                bi = 000013, bj = 000008
(PID.TID 0000.0001) //        EAST: Tile = 000120, Process = 000000, Comm = put
[...]
(PID.TID 0000.0001)    18 @      -99                            /* J = -2: 15 */
(PID.TID 0000.0001)  OB_Iw = /* Western OB local indices */
(PID.TID 0000.0001)    18 @      -99                            /* J = -2: 15 */
(PID.TID 0000.0001) ======== Tile bi=  15 , bj=  13 ========
(PID.TID 0000.0001)  OB_Jn = /* Northern OB local indices */
(PID.TID 0000.0001)    22 @      -99                            /* I = -2: 19 */
(PID.TID 0000.0001)  OB_Js = /* Southern OB local indices */
(PID.TID 0000.0001)    22 @      -99                            /* I = -2: 19 */
(PID.TID 0000.0001)  OB_Ie = /* Eastern OB local indices */
(PID.TID 0000.0001)    18 @      -99                            /* J = -2: 15 */
(PID.TID 0000.0001)  OB_Iw = /* Western OB local indices */
(PID.TID 0000.0001)    18 @      -99                            /* J = -2: 15 */
(PID.TID 0000.0001) ======== Tile bi=   1 , bj=  14 ========
(PID.TID 0000.0001)  OB_Jn = /* Northern OB local indices */
(PID.TID 0000.0001)    22 @      -99                            /* I = -2: 19 */
(PID.TID 0000.0001)  OB_Js = /* Southern OB local indices */
(PID.TID 0000.0001)    22 @      -99                            /* I = -2: 19 */
(PID.TID 0000.0001)  OB_Ie = /* Eastern OB local indices */
(PID.TID 0000.0001)    18 @      -99                            /* J = -2: 15 */
(PID.TID 0000.0001)  OB_Iw = /* Western OB local indices */
(PID.TID 0000.0001)    18 @      -99                            /* J = -2: 15 */
(PID.TID 0000.0001) ======== Tile bi=   2 , bj=  14 ========
(PID.TID 0000.0001)  OB_Jn = /* Northern OB local indices */
(PID.TID 0000.0001)    22 @      -99                            /* I = -2: 19 */
(PID.TID 0000.0001)  OB_Js = /* Southern OB local indices */
(PID.TID 0000.0001)    22 @      -99                            /* I = -2: 19 */
(PID.TID 0000.0001)  OB_Ie = /* Eastern OB local indices */
(PID.TID 0000.0001)    18 @      -99                            /* J = -2: 15 */
(PID.TID 0000.0001)  OB_Iw = /* Western OB local indices */
(PID.TID 0000.0001)    18 @      -99                            /* J = -2: 15 */
(PID.TID 0000.0001) ======== Tile bi=   3 , bj=  14 ========
(PID.TID 0000.0001)  OB_Jn = /* Northern OB local indices */
(PID.TID 0000.0001)    22 @      -99                            /* I = -2: 19 */
(PID.TID 0000.0001)  OB_Js = /* Southern OB local indices */
(PID.TID 0000.0001)    22 @      -99                            /* I = -2: 19 */
(PID.TID 0000.0001)  OB_Ie = /* Eastern OB local indices */
(PID.TID 0000.0001)    18 @      -99                            /* J = -2: 15 */
(PID.TID 0000.0001)  OB_Iw = /* Western OB local indices */
(PID.TID 0000.0001)    18 @      -99                            /* J = -2: 15 */
(PID.TID 0000.0001) ======== Tile bi=   4 , bj=  14 ========
(PID.TID 0000.0001)  OB_Jn = /* Northern OB local indices */
(PID.TID 0000.0001)    22 @      -99                            /* I = -2: 19 */
(PID.TID 0000.0001)  OB_Js = /* Southern OB local indices */
(PID.TID 0000.0001)    22 @      -99                            /* I = -2: 19 */
(PID.TID 0000.0001)  OB_Ie = /* Eastern OB local indices */
(PID.TID 0000.0001)    18 @      -99                            /* J = -2: 15 */
(PID.TID 0000.0001)  OB_Iw = /* Western OB local indices */
(PID.TID 0000.0001)    18 @      -99                            /* J = -2: 15 */
(PID.TID 0000.0001) ======== Tile bi=   5 , bj=  14 ========
(PID.TID 0000.0001)  OB_Jn = /* Northern OB local indices */
(PID.TID 0000.0001)    22 @      -99                            /* I = -2: 19 */
(PID.TID 0000.0001)  OB_Js = /* Southern OB local indices */
(PID.TID 0000.0001)    22 @      -99                            /* I = -2: 19 */
(PID.TID 0000.0001)  OB_Ie = /* Eastern OB local indices */
(PID.TID 0000.0001)    18 @      -99                            /* J = -2: 15 */
(PID.TID 0000.0001)  OB_Iw = /* Western OB local indices */
(PID.TID 0000.0001)    18 @      -99                            /* J = -2: 15 */
(PID.TID 0000.0001) ======== Tile bi=   6 , bj=  14 ========
(PID.TID 0000.0001)  OB_Jn = /* Northern OB local indices */
(PID.TID 0000.0001)    22 @      -99                            /* I = -2: 19 */
(PID.TID 0000.0001)  OB_Js = /* Southern OB local indices */
(PID.TID 0000.0001)    22 @      -99                            /* I = -2: 19 */
(PID.TID 0000.0001)  OB_Ie = /* Eastern OB local indices */
(PID.TID 0000.0001)    18 @      -99                            /* J = -2: 15 */
(PID.TID 0000.0001)  OB_Iw = /* Western OB local indices */
(PID.TID 0000.0001)    18 @      -99                            /* J = -2: 15 */
(PID.TID 0000.0001) ======== Tile bi=   7 , bj=  14 ========
(PID.TID 0000.0001)  OB_Jn = /* Northern OB local indices */
(PID.TID 0000.0001)    22 @      -99                            /* I = -2: 19 */
(PID.TID 0000.0001)  OB_Js = /* Southern OB local indices */
(PID.TID 0000.0001)    22 @      -99                            /* I = -2: 19 */
(PID.TID 0000.0001)  OB_Ie = /* Eastern OB local indices */
(PID.TID 0000.0001)    18 @      -99                            /* J = -2: 15 */
(PID.TID 0000.0001)  OB_Iw = /* Western OB local indices */
(PID.TID 0000.0001)    18 @      -99                            /* J = -2: 15 */
(PID.TID 0000.0001) ======== Tile bi=   8 , bj=  14 ========
(PID.TID 0000.0001)  OB_Jn = /* Northern OB local indices */
(PID.TID 0000.0001)    22 @      -99                            /* I = -2: 19 */
(PID.TID 0000.0001)  OB_Js = /* Southern OB local indices */
(PID.TID 0000.0001)    22 @      -99                            /* I = -2: 19 */
(PID.TID 0000.0001)  OB_Ie = /* Eastern OB local indices */
(PID.TID 0000.0001)    18 @      -99                            /* J = -2: 15 */
(PID.TID 0000.0001)  OB_Iw = /* Western OB local indices */
(PID.TID 0000.0001)    18 @      -99                            /* J = -2: 15 */
(PID.TID 0000.0001) ======== Tile bi=   9 , bj=  14 ========
(PID.TID 0000.0001)  OB_Jn = /* Northern OB local indices */
(PID.TID 0000.0001)    22 @      -99                            /* I = -2: 19 */
(PID.TID 0000.0001)  OB_Js = /* Southern OB local indices */
(PID.TID 0000.0001)    22 @      -99                            /* I = -2: 19 */
(PID.TID 0000.0001)  OB_Ie = /* Eastern OB local indices */
(PID.TID 0000.0001)    18 @      -99                            /* J = -2: 15 */
(PID.TID 0000.0001)  OB_Iw = /* Western OB local indices */
(PID.TID 0000.0001)    18 @      -99                            /* J = -2: 15 */
(PID.TID 0000.0001) ======== Tile bi=  10 , bj=  14 ========
(PID.TID 0000.0001)  OB_Jn = /* Northern OB local indices */
(PID.TID 0000.0001)    22 @      -99                            /* I = -2: 19 */
(PID.TID 0000.0001)  OB_Js = /* Southern OB local indices */
(PID.TID 0000.0001)    22 @      -99                            /* I = -2: 19 */
(PID.TID 0000.0001)  OB_Ie = /* Eastern OB local indices */
(PID.TID 0000.0001)    18 @      -99                            /* J = -2: 15 */
(PID.TID 0000.0001)  OB_Iw = /* Western OB local indices */
(PID.TID 0000.0001)    18 @      -99                            /* J = -2: 15 */
(PID.TID 0000.0001) ======== Tile bi=  11 , bj=  14 ========
(PID.TID 0000.0001)  OB_Jn = /* Northern OB local indices */
(PID.TID 0000.0001)    22 @      -99                            /* I = -2: 19 */
(PID.TID 0000.0001)  OB_Js = /* Southern OB local indices */
(PID.TID 0000.0001)    22 @      -99                            /* I = -2: 19 */
(PID.TID 0000.0001)  OB_Ie = /* Eastern OB local indices */
(PID.TID 0000.0001)    18 @      -99                            /* J = -2: 15 */
(PID.TID 0000.0001)  OB_Iw = /* Western OB local indices */
(PID.TID 0000.0001)    18 @      -99                            /* J = -2: 15 */
(PID.TID 0000.0001) ======== Tile bi=  12 , bj=  14 ========
(PID.TID 0000.0001)  OB_Jn = /* Northern OB local indices */
(PID.TID 0000.0001)    22 @      -99                            /* I = -2: 19 */
(PID.TID 0000.0001)  OB_Js = /* Southern OB local indices */
(PID.TID 0000.0001)    22 @      -99                            /* I = -2: 19 */
(PID.TID 0000.0001)  OB_Ie = /* Eastern OB local indices */
(PID.TID 0000.0001)    18 @      -99                            /* J = -2: 15 */
(PID.TID 0000.0001)  OB_Iw = /* Western OB local indices */
(PID.TID 0000.0001)    18 @      -99                            /* J = -2: 15 */
(PID.TID 0000.0001) ======== Tile bi=  13 , bj=  14 ========
(PID.TID 0000.0001)  OB_Jn = /* Northern OB local indices */
(PID.TID 0000.0001)    22 @      -99                            /* I = -2: 19 */
(PID.TID 0000.0001)  OB_Js = /* Southern OB local indices */
(PID.TID 0000.0001)    22 @      -99                            /* I = -2: 19 */
(PID.TID 0000.0001)  OB_Ie = /* Eastern OB local indices */
(PID.TID 0000.0001)    18 @      -99                            /* J = -2: 15 */
(PID.TID 0000.0001)  OB_Iw = /* Western OB local indices */
(PID.TID 0000.0001)    18 @      -99                            /* J = -2: 15 */
(PID.TID 0000.0001) ======== Tile bi=  14 , bj=  14 ========
(PID.TID 0000.0001)  OB_Jn = /* Northern OB local indices */
(PID.TID 0000.0001)    22 @      -99                            /* I = -2: 19 */
(PID.TID 0000.0001)  OB_Js = /* Southern OB local indices */
(PID.TID 0000.0001)    22 @      -99                            /* I = -2: 19 */
(PID.TID 0000.0001)  OB_Ie = /* Eastern OB local indices */
(PID.TID 0000.0001)    18 @      -99                            /* J = -2: 15 */
(PID.TID 0000.0001)  OB_Iw = /* Western OB local indices */
(PID.TID 0000.0001)    18 @      -99                            /* J = -2: 15 */
(PID.TID 0000.0001) ======== Tile bi=  15 , bj=  14 ========
(PID.TID 0000.0001)  OB_Jn = /* Northern OB local indices */
(PID.TID 0000.0001)    22 @      -99                            /* I = -2: 19 */
(PID.TID 0000.0001)  OB_Js = /* Southern OB local indices */
(PID.TID 0000.0001)    22 @      -99                            /* I = -2: 19 */
(PID.TID 0000.0001)  OB_Ie = /* Eastern OB local indices */
(PID.TID 0000.0001)    18 @      -99                            /* J = -2: 15 */
(PID.TID 0000.0001)  OB_Iw = /* Western OB local indices */
(PID.TID 0000.0001)    18 @      -99                            /* J = -2: 15 */
(PID.TID 0000.0001) ======== Tile bi=   1 , bj=  15 ========
(PID.TID 0000.0001)  OB_Jn = /* Northern OB local indices */
(PID.TID 0000.0001)    22 @      -99                            /* I = -2: 19 */
(PID.TID 0000.0001)  OB_Js = /* Southern OB local indices */
(PID.TID 0000.0001)    22 @      -99                            /* I = -2: 19 */
(PID.TID 0000.0001)  OB_Ie = /* Eastern OB local indices */
(PID.TID 0000.0001)    18 @      -99                            /* J = -2: 15 */
(PID.TID 0000.0001)  OB_Iw = /* Western OB local indices */
(PID.TID 0000.0001)    18 @      -99                            /* J = -2: 15 */
(PID.TID 0000.0001) ======== Tile bi=   2 , bj=  15 ========
(PID.TID 0000.0001)  OB_Jn = /* Northern OB local indices */
(PID.TID 0000.0001)    22 @      -99                            /* I = -2: 19 */
(PID.TID 0000.0001)  OB_Js = /* Southern OB local indices */
(PID.TID 0000.0001)    22 @      -99                            /* I = -2: 19 */
(PID.TID 0000.0001)  OB_Ie = /* Eastern OB local indices */
(PID.TID 0000.0001)    18 @      -99                            /* J = -2: 15 */
(PID.TID 0000.0001)  OB_Iw = /* Western OB local indices */
(PID.TID 0000.0001)    18 @      -99                            /* J = -2: 15 */
(PID.TID 0000.0001) ======== Tile bi=   3 , bj=  15 ========
(PID.TID 0000.0001)  OB_Jn = /* Northern OB local indices */
(PID.TID 0000.0001)    22 @      -99                            /* I = -2: 19 */
(PID.TID 0000.0001)  OB_Js = /* Southern OB local indices */
(PID.TID 0000.0001)    22 @      -99                            /* I = -2: 19 */
(PID.TID 0000.0001)  OB_Ie = /* Eastern OB local indices */
(PID.TID 0000.0001)    18 @      -99                            /* J = -2: 15 */
(PID.TID 0000.0001)  OB_Iw = /* Western OB local indices */
(PID.TID 0000.0001)    18 @      -99                            /* J = -2: 15 */
(PID.TID 0000.0001) ======== Tile bi=   4 , bj=  15 ========
(PID.TID 0000.0001)  OB_Jn = /* Northern OB local indices */
(PID.TID 0000.0001)    22 @      -99                            /* I = -2: 19 */
(PID.TID 0000.0001)  OB_Js = /* Southern OB local indices */
(PID.TID 0000.0001)    22 @      -99                            /* I = -2: 19 */
(PID.TID 0000.0001)  OB_Ie = /* Eastern OB local indices */
(PID.TID 0000.0001)    18 @      -99                            /* J = -2: 15 */
(PID.TID 0000.0001)  OB_Iw = /* Western OB local indices */
(PID.TID 0000.0001)    18 @      -99                            /* J = -2: 15 */
(PID.TID 0000.0001) ======== Tile bi=   5 , bj=  15 ========
(PID.TID 0000.0001)  OB_Jn = /* Northern OB local indices */
(PID.TID 0000.0001)    22 @      -99                            /* I = -2: 19 */
(PID.TID 0000.0001)  OB_Js = /* Southern OB local indices */
(PID.TID 0000.0001)    22 @      -99                            /* I = -2: 19 */
(PID.TID 0000.0001)  OB_Ie = /* Eastern OB local indices */
(PID.TID 0000.0001)    18 @      -99                            /* J = -2: 15 */
(PID.TID 0000.0001)  OB_Iw = /* Western OB local indices */
(PID.TID 0000.0001)    18 @      -99                            /* J = -2: 15 */
(PID.TID 0000.0001) ======== Tile bi=   6 , bj=  15 ========
(PID.TID 0000.0001)  OB_Jn = /* Northern OB local indices */
(PID.TID 0000.0001)    22 @      -99                            /* I = -2: 19 */
(PID.TID 0000.0001)  OB_Js = /* Southern OB local indices */
(PID.TID 0000.0001)    22 @      -99                            /* I = -2: 19 */
(PID.TID 0000.0001)  OB_Ie = /* Eastern OB local indices */
(PID.TID 0000.0001)    18 @      -99                            /* J = -2: 15 */
(PID.TID 0000.0001)  OB_Iw = /* Western OB local indices */
(PID.TID 0000.0001)    18 @      -99                            /* J = -2: 15 */
(PID.TID 0000.0001) ======== Tile bi=   7 , bj=  15 ========
(PID.TID 0000.0001)  OB_Jn = /* Northern OB local indices */
(PID.TID 0000.0001)    22 @      -99                            /* I = -2: 19 */
(PID.TID 0000.0001)  OB_Js = /* Southern OB local indices */
(PID.TID 0000.0001)    22 @      -99                            /* I = -2: 19 */
(PID.TID 0000.0001)  OB_Ie = /* Eastern OB local indices */
(PID.TID 0000.0001)    18 @      -99                            /* J = -2: 15 */
(PID.TID 0000.0001)  OB_Iw = /* Western OB local indices */
(PID.TID 0000.0001)    18 @      -99                            /* J = -2: 15 */
(PID.TID 0000.0001) ======== Tile bi=   8 , bj=  15 ========
(PID.TID 0000.0001)  OB_Jn = /* Northern OB local indices */
(PID.TID 0000.0001)    22 @      -99                            /* I = -2: 19 */
(PID.TID 0000.0001)  OB_Js = /* Southern OB local indices */
(PID.TID 0000.0001)    22 @      -99                            /* I = -2: 19 */
(PID.TID 0000.0001)  OB_Ie = /* Eastern OB local indices */
(PID.TID 0000.0001)    18 @      -99                            /* J = -2: 15 */
(PID.TID 0000.0001)  OB_Iw = /* Western OB local indices */
(PID.TID 0000.0001)    18 @      -99                            /* J = -2: 15 */
(PID.TID 0000.0001) ======== Tile bi=   9 , bj=  15 ========
(PID.TID 0000.0001)  OB_Jn = /* Northern OB local indices */
(PID.TID 0000.0001)    22 @      -99                            /* I = -2: 19 */
(PID.TID 0000.0001)  OB_Js = /* Southern OB local indices */
(PID.TID 0000.0001)    22 @      -99                            /* I = -2: 19 */
(PID.TID 0000.0001)  OB_Ie = /* Eastern OB local indices */
(PID.TID 0000.0001)    18 @      -99                            /* J = -2: 15 */
(PID.TID 0000.0001)  OB_Iw = /* Western OB local indices */
(PID.TID 0000.0001)    18 @      -99                            /* J = -2: 15 */
(PID.TID 0000.0001) ======== Tile bi=  10 , bj=  15 ========
(PID.TID 0000.0001)  OB_Jn = /* Northern OB local indices */
(PID.TID 0000.0001)    22 @      -99                            /* I = -2: 19 */
(PID.TID 0000.0001)  OB_Js = /* Southern OB local indices */
(PID.TID 0000.0001)    22 @      -99                            /* I = -2: 19 */
(PID.TID 0000.0001)  OB_Ie = /* Eastern OB local indices */
(PID.TID 0000.0001)    18 @      -99                            /* J = -2: 15 */
(PID.TID 0000.0001)  OB_Iw = /* Western OB local indices */
(PID.TID 0000.0001)    18 @      -99                            /* J = -2: 15 */
(PID.TID 0000.0001) ======== Tile bi=  11 , bj=  15 ========
(PID.TID 0000.0001)  OB_Jn = /* Northern OB local indices */
(PID.TID 0000.0001)    22 @      -99                            /* I = -2: 19 */
(PID.TID 0000.0001)  OB_Js = /* Southern OB local indices */
(PID.TID 0000.0001)    22 @      -99                            /* I = -2: 19 */
(PID.TID 0000.0001)  OB_Ie = /* Eastern OB local indices */
(PID.TID 0000.0001)    18 @      -99                            /* J = -2: 15 */
(PID.TID 0000.0001)  OB_Iw = /* Western OB local indices */
(PID.TID 0000.0001)    18 @      -99                            /* J = -2: 15 */
(PID.TID 0000.0001) ======== Tile bi=  12 , bj=  15 ========
(PID.TID 0000.0001)  OB_Jn = /* Northern OB local indices */
(PID.TID 0000.0001)    22 @      -99                            /* I = -2: 19 */
(PID.TID 0000.0001)  OB_Js = /* Southern OB local indices */
(PID.TID 0000.0001)    22 @      -99                            /* I = -2: 19 */
(PID.TID 0000.0001)  OB_Ie = /* Eastern OB local indices */
(PID.TID 0000.0001)    18 @      -99                            /* J = -2: 15 */
(PID.TID 0000.0001)  OB_Iw = /* Western OB local indices */
(PID.TID 0000.0001)    18 @      -99                            /* J = -2: 15 */
(PID.TID 0000.0001) ======== Tile bi=  13 , bj=  15 ========
(PID.TID 0000.0001)  OB_Jn = /* Northern OB local indices */
(PID.TID 0000.0001)    22 @      -99                            /* I = -2: 19 */
(PID.TID 0000.0001)  OB_Js = /* Southern OB local indices */
(PID.TID 0000.0001)    22 @      -99                            /* I = -2: 19 */
(PID.TID 0000.0001)  OB_Ie = /* Eastern OB local indices */
(PID.TID 0000.0001)    18 @      -99                            /* J = -2: 15 */
(PID.TID 0000.0001)  OB_Iw = /* Western OB local indices */
(PID.TID 0000.0001)    18 @      -99                            /* J = -2: 15 */
(PID.TID 0000.0001) ======== Tile bi=  14 , bj=  15 ========
(PID.TID 0000.0001)  OB_Jn = /* Northern OB local indices */
(PID.TID 0000.0001)    22 @      -99                            /* I = -2: 19 */
(PID.TID 0000.0001)  OB_Js = /* Southern OB local indices */
(PID.TID 0000.0001)    22 @      -99                            /* I = -2: 19 */
(PID.TID 0000.0001)  OB_Ie = /* Eastern OB local indices */
(PID.TID 0000.0001)    18 @      -99                            /* J = -2: 15 */
(PID.TID 0000.0001)  OB_Iw = /* Western OB local indices */
(PID.TID 0000.0001)    18 @      -99                            /* J = -2: 15 */
(PID.TID 0000.0001) ======== Tile bi=  15 , bj=  15 ========
(PID.TID 0000.0001)  OB_Jn = /* Northern OB local indices */
(PID.TID 0000.0001)    22 @      -99                            /* I = -2: 19 */
(PID.TID 0000.0001)  OB_Js = /* Southern OB local indices */
(PID.TID 0000.0001)    22 @      -99                            /* I = -2: 19 */
(PID.TID 0000.0001)  OB_Ie = /* Eastern OB local indices */
(PID.TID 0000.0001)    18 @      -99                            /* J = -2: 15 */
(PID.TID 0000.0001)  OB_Iw = /* Western OB local indices */
(PID.TID 0000.0001)    18 @      -99                            /* J = -2: 15 */
(PID.TID 0000.0001) // =======================================================
(PID.TID 0000.0001) // End of OBCS config. summary
(PID.TID 0000.0001) // =======================================================
(PID.TID 0000.0001) 
(PID.TID 0000.0001) OBCS_CHECK: #define ALLOW_ORLANSKI
(PID.TID 0000.0001) OBCS_CHECK: set-up OK
